xflr5 v6.61

Plane Name
T1-10.0 m/s-Panel-Inviscid
QInf  =   10.000000 m/s
Alpha =    0.000000
Beta  =    0.000°
Phi   =    0.000°
Ctrl  =    0.000
CL    =    0.370799
Cy    =   -0.000000
Cd    =    0.005364     ICd   =    0.005364     PCd   =    0.000000
Cl   = -8.8513e-16
Cm   =   -0.498308
ICn   =   -0.000000     PCn   =   -0.000000
XCP   =    5.026210     YCP   =    0.000000     ZCP   =    0.640239
XNP   =    0.000000
Bending = 5730.360415

Main Wing
  y-span        Chord      Ai         Cl        PCd          ICd        CmGeom    CmAirf@chord/4    XTrtop    XTrBot      XCP       BM
  -13.7155     1.5833    -3.540    0.134912    0.000000    0.008348   -0.813052   -0.043095     0.0000    0.0000    0.5151    0.0000
  -13.6218     1.6082    -2.901    0.222559    0.000000    0.011281   -1.140353   -0.065305     0.0000    0.0000    0.5320    0.0590
  -13.4351     1.6581    -2.254    0.295867    0.000000    0.011649   -1.369848   -0.077555     0.0000    0.0000    0.5168    0.7663
  -13.1566     1.7323    -1.712    0.347813    0.000000    0.010397   -1.517160   -0.088221     0.0000    0.0000    0.5083    3.8211
  -12.7882     1.8306    -1.314    0.381512    0.000000    0.008750   -1.551589   -0.095090     0.0000    0.0000    0.5026   12.3792
  -12.3324     1.9521    -1.044    0.401639    0.000000    0.007319   -1.499932   -0.099103     0.0000    0.0000    0.4993   31.2191
  -11.7925     2.0962    -0.871    0.412241    0.000000    0.006271   -1.395052   -0.101369     0.0000    0.0000    0.4981   66.8045
  -11.1719     2.2617    -0.768    0.416303    0.000000    0.005579   -1.262890   -0.102642     0.0000    0.0000    0.4986   127.2761
  -10.4751     2.4475    -0.711    0.415868    0.000000    0.005165   -1.121086   -0.103355     0.0000    0.0000    0.5007   222.3775
   -9.7066     2.6525    -0.688    0.412277    0.000000    0.004952   -0.980593   -0.103747     0.0000    0.0000    0.5041   363.2974
   -8.8719     2.8751    -0.687    0.406382    0.000000    0.004877   -0.847707   -0.103950     0.0000    0.0000    0.5086   562.4130
   -7.9766     3.1139    -0.703    0.398705    0.000000    0.004891   -0.725658   -0.104036     0.0000    0.0000    0.5142   832.9184
   -7.0268     3.3673    -0.729    0.389539    0.000000    0.004958   -0.615766   -0.104051     0.0000    0.0000    0.5210   1188.3342
   -6.0290     3.6334    -0.763    0.379017    0.000000    0.005049   -0.518227   -0.104020     0.0000    0.0000    0.5291   1641.8995
   -4.9900     3.9105    -0.801    0.367142    0.000000    0.005135   -0.432612   -0.103974     0.0000    0.0000    0.5387   2205.8625
   -3.9169     4.1967    -0.839    0.353810    0.000000    0.005187   -0.358214   -0.103956     0.0000    0.0000    0.5505   2890.6886
   -2.8170     4.4901    -0.868    0.338729    0.000000    0.005138   -0.294215   -0.104023     0.0000    0.0000    0.5652   3704.2183
   -1.6980     4.7885    -0.870    0.321519    0.000000    0.004894   -0.240016   -0.104374     0.0000    0.0000    0.5847   4650.7850
   -0.5673     5.0901    -0.766    0.300955    0.000000    0.004047   -0.195569   -0.105422     0.0000    0.0000    0.6114   5730.3604
    0.5673     5.0901    -0.766    0.300955    0.000000    0.004047   -0.195569   -0.105422     0.0000    0.0000    0.6114   5730.3604
    1.6980     4.7885    -0.870    0.321519    0.000000    0.004894   -0.240016   -0.104374     0.0000    0.0000    0.5847   4650.7850
    2.8170     4.4901    -0.868    0.338729    0.000000    0.005138   -0.294215   -0.104023     0.0000    0.0000    0.5652   3704.2183
    3.9169     4.1967    -0.839    0.353810    0.000000    0.005187   -0.358214   -0.103956     0.0000    0.0000    0.5505   2890.6886
    4.9900     3.9105    -0.801    0.367142    0.000000    0.005135   -0.432612   -0.103974     0.0000    0.0000    0.5387   2205.8625
    6.0290     3.6334    -0.763    0.379017    0.000000    0.005049   -0.518227   -0.104020     0.0000    0.0000    0.5291   1641.8995
    7.0268     3.3673    -0.729    0.389539    0.000000    0.004958   -0.615766   -0.104051     0.0000    0.0000    0.5210   1188.3342
    7.9766     3.1139    -0.703    0.398705    0.000000    0.004891   -0.725658   -0.104036     0.0000    0.0000    0.5142   832.9184
    8.8719     2.8751    -0.687    0.406382    0.000000    0.004877   -0.847707   -0.103950     0.0000    0.0000    0.5086   562.4130
    9.7066     2.6525    -0.688    0.412277    0.000000    0.004952   -0.980593   -0.103747     0.0000    0.0000    0.5041   363.2974
   10.4751     2.4475    -0.711    0.415868    0.000000    0.005165   -1.121086   -0.103355     0.0000    0.0000    0.5007   222.3775
   11.1719     2.2617    -0.768    0.416303    0.000000    0.005579   -1.262890   -0.102642     0.0000    0.0000    0.4986   127.2761
   11.7925     2.0962    -0.871    0.412241    0.000000    0.006271   -1.395052   -0.101369     0.0000    0.0000    0.4981   66.8045
   12.3324     1.9521    -1.044    0.401639    0.000000    0.007319   -1.499932   -0.099103     0.0000    0.0000    0.4993   31.2191
   12.7882     1.8306    -1.314    0.381512    0.000000    0.008750   -1.551589   -0.095090     0.0000    0.0000    0.5026   12.3792
   13.1566     1.7323    -1.712    0.347813    0.000000    0.010397   -1.517160   -0.088221     0.0000    0.0000    0.5083    3.8211
   13.4351     1.6581    -2.254    0.295867    0.000000    0.011649   -1.369848   -0.077555     0.0000    0.0000    0.5168    0.7663
   13.6218     1.6082    -2.901    0.222559    0.000000    0.011281   -1.140353   -0.065305     0.0000    0.0000    0.5320    0.0590
   13.7155     1.5833    -3.540    0.134912    0.000000    0.008348   -0.813052   -0.043095     0.0000    0.0000    0.5151    0.0000


Main Wing Cp Coefficients
 Panel     CtrlPt.x        CtrlPt.y        CtrlPt.z       Nx      Ny       Nz        Area       Cp
Main WingCp Coefficients
Strip 1
  13       8.708e+00      -1.369e+01       7.912e-01          -0.141          -0.093          -0.986       1.091e-03         -0.0001
  14       8.662e+00      -1.369e+01       7.963e-01          -0.104          -0.083          -0.991       3.194e-03         -0.0166
  15       8.574e+00      -1.369e+01       8.028e-01          -0.054          -0.070          -0.996       5.094e-03         -0.0181
  16       8.449e+00      -1.369e+01       8.057e-01           0.000          -0.055          -0.999       6.702e-03          0.0030
  17       8.293e+00      -1.369e+01       8.011e-01           0.055          -0.038          -0.998       7.942e-03          0.0243
  18       8.115e+00      -1.369e+01       7.874e-01           0.098          -0.023          -0.995       8.742e-03          0.0215
  19       7.927e+00      -1.369e+01       7.671e-01           0.117          -0.016          -0.993       9.028e-03         -0.0128
  20       7.739e+00      -1.370e+01       7.467e-01           0.098          -0.023          -0.995       8.748e-03         -0.0715
  21       7.562e+00      -1.370e+01       7.339e-01           0.043          -0.048          -0.998       7.943e-03         -0.1306
  22       7.406e+00      -1.370e+01       7.324e-01          -0.030          -0.082          -0.996       6.714e-03         -0.1762
  23       7.281e+00      -1.370e+01       7.416e-01          -0.129          -0.128          -0.983       5.147e-03         -0.2135
  24       7.193e+00      -1.369e+01       7.590e-01          -0.290          -0.207          -0.934       3.363e-03         -0.2110
  25       7.147e+00      -1.369e+01       7.795e-01          -0.623          -0.365          -0.692       1.517e-03          0.1287
  26       7.147e+00      -1.369e+01       8.098e-01          -0.793          -0.386           0.472       2.402e-03          0.4227
  27       7.193e+00      -1.369e+01       8.497e-01          -0.486          -0.208           0.849       3.797e-03         -0.2489
  28       7.281e+00      -1.369e+01       8.856e-01          -0.285          -0.102           0.953       5.373e-03         -0.3795
  29       7.406e+00      -1.369e+01       9.133e-01          -0.156          -0.038           0.987       6.806e-03         -0.3635
  30       7.562e+00      -1.368e+01       9.293e-01          -0.056           0.009           0.998       7.936e-03         -0.3245
  31       7.739e+00      -1.368e+01       9.318e-01           0.024           0.044           0.999       8.681e-03         -0.2717
  32       7.927e+00      -1.369e+01       9.215e-01           0.085           0.068           0.994       8.972e-03         -0.2173
  33       8.115e+00      -1.369e+01       9.012e-01           0.130           0.085           0.988       8.760e-03         -0.1758
  34       8.293e+00      -1.369e+01       8.744e-01           0.171           0.098           0.980       8.045e-03         -0.1501
  35       8.449e+00      -1.369e+01       8.456e-01           0.196           0.106           0.975       6.839e-03         -0.1480
  36       8.574e+00      -1.369e+01       8.200e-01           0.205           0.108           0.973       5.203e-03         -0.1594
  37       8.662e+00      -1.369e+01       8.014e-01           0.207           0.109           0.972       3.250e-03         -0.1433
  38       8.708e+00      -1.369e+01       7.919e-01           0.202           0.108           0.973       1.104e-03         -0.1218
Strip 2
  39       8.684e+00      -1.360e+01       7.858e-01          -0.141          -0.093          -0.986       3.318e-03          0.1058
  40       8.638e+00      -1.360e+01       7.911e-01          -0.104          -0.083          -0.991       9.711e-03          0.1103
  41       8.548e+00      -1.360e+01       7.976e-01          -0.054          -0.070          -0.996       1.549e-02          0.1220
  42       8.421e+00      -1.360e+01       8.006e-01           0.000          -0.055          -0.999       2.038e-02          0.1242
  43       8.262e+00      -1.360e+01       7.958e-01           0.055          -0.038          -0.998       2.415e-02          0.1131
  44       8.082e+00      -1.360e+01       7.819e-01           0.098          -0.023          -0.995       2.658e-02          0.0779
  45       7.891e+00      -1.360e+01       7.613e-01           0.117          -0.016          -0.993       2.745e-02          0.0109
  46       7.700e+00      -1.360e+01       7.406e-01           0.098          -0.023          -0.995       2.660e-02         -0.0813
  47       7.520e+00      -1.360e+01       7.276e-01           0.043          -0.048          -0.998       2.415e-02         -0.1694
  48       7.362e+00      -1.360e+01       7.261e-01          -0.030          -0.082          -0.996       2.041e-02         -0.2336
  49       7.234e+00      -1.360e+01       7.355e-01          -0.128          -0.128          -0.983       1.565e-02         -0.2667
  50       7.145e+00      -1.360e+01       7.532e-01          -0.290          -0.207          -0.934       1.023e-02         -0.2105
  51       7.099e+00      -1.360e+01       7.739e-01          -0.623          -0.364          -0.692       4.612e-03          0.1364
  52       7.099e+00      -1.360e+01       8.047e-01          -0.793          -0.386           0.472       7.302e-03          0.5151
  53       7.145e+00      -1.360e+01       8.452e-01          -0.486          -0.208           0.849       1.154e-02         -0.2401
  54       7.234e+00      -1.359e+01       8.818e-01          -0.285          -0.102           0.953       1.633e-02         -0.4643
  55       7.362e+00      -1.359e+01       9.099e-01          -0.156          -0.038           0.987       2.069e-02         -0.4734
  56       7.520e+00      -1.359e+01       9.262e-01          -0.056           0.009           0.998       2.413e-02         -0.4277
  57       7.700e+00      -1.359e+01       9.287e-01           0.024           0.044           0.999       2.640e-02         -0.3574
  58       7.891e+00      -1.359e+01       9.181e-01           0.085           0.068           0.994       2.728e-02         -0.2839
  59       8.082e+00      -1.359e+01       8.976e-01           0.130           0.085           0.988       2.663e-02         -0.2247
  60       8.262e+00      -1.359e+01       8.704e-01           0.171           0.098           0.980       2.446e-02         -0.1742
  61       8.421e+00      -1.360e+01       8.411e-01           0.196           0.106           0.975       2.079e-02         -0.1291
  62       8.548e+00      -1.360e+01       8.150e-01           0.205           0.108           0.973       1.582e-02         -0.0884
  63       8.638e+00      -1.360e+01       7.962e-01           0.207           0.109           0.972       9.882e-03         -0.0319
  64       8.684e+00      -1.360e+01       7.865e-01           0.202           0.108           0.973       3.356e-03          0.0083
Strip 3
  65       8.636e+00      -1.341e+01       7.751e-01          -0.141          -0.093          -0.986       5.675e-03          0.1916
  66       8.588e+00      -1.341e+01       7.805e-01          -0.104          -0.083          -0.991       1.661e-02          0.2031
  67       8.496e+00      -1.341e+01       7.873e-01          -0.054          -0.070          -0.996       2.649e-02          0.2150
  68       8.365e+00      -1.341e+01       7.903e-01           0.000          -0.055          -0.999       3.485e-02          0.2023
  69       8.201e+00      -1.341e+01       7.855e-01           0.055          -0.038          -0.998       4.130e-02          0.1702
  70       8.016e+00      -1.341e+01       7.711e-01           0.098          -0.023          -0.995       4.546e-02          0.1136
  71       7.819e+00      -1.341e+01       7.498e-01           0.117          -0.016          -0.993       4.694e-02          0.0249
  72       7.622e+00      -1.342e+01       7.285e-01           0.098          -0.023          -0.995       4.549e-02         -0.0893
  73       7.436e+00      -1.342e+01       7.151e-01           0.043          -0.048          -0.998       4.131e-02         -0.1926
  74       7.273e+00      -1.342e+01       7.136e-01          -0.030          -0.082          -0.996       3.492e-02         -0.2527
  75       7.142e+00      -1.342e+01       7.232e-01          -0.128          -0.128          -0.983       2.677e-02         -0.2571
  76       7.049e+00      -1.341e+01       7.415e-01          -0.290          -0.207          -0.934       1.750e-02         -0.1582
  77       7.002e+00      -1.341e+01       7.629e-01          -0.622          -0.364          -0.693       7.894e-03          0.1994
  78       7.002e+00      -1.341e+01       7.946e-01          -0.793          -0.386           0.471       1.248e-02          0.5834
  79       7.049e+00      -1.341e+01       8.364e-01          -0.486          -0.208           0.849       1.973e-02         -0.2200
  80       7.142e+00      -1.341e+01       8.741e-01          -0.285          -0.102           0.953       2.793e-02         -0.5046
  81       7.273e+00      -1.341e+01       9.030e-01          -0.156          -0.038           0.987       3.539e-02         -0.5595
  82       7.436e+00      -1.340e+01       9.198e-01          -0.056           0.009           0.998       4.127e-02         -0.5292
  83       7.622e+00      -1.340e+01       9.224e-01           0.024           0.044           0.999       4.515e-02         -0.4495
  84       7.819e+00      -1.341e+01       9.116e-01           0.085           0.068           0.994       4.666e-02         -0.3541
  85       8.016e+00      -1.341e+01       8.903e-01           0.130           0.085           0.988       4.556e-02         -0.2660
  86       8.201e+00      -1.341e+01       8.623e-01           0.171           0.098           0.980       4.185e-02         -0.1794
  87       8.365e+00      -1.341e+01       8.321e-01           0.196           0.106           0.975       3.557e-02         -0.0947
  88       8.496e+00      -1.341e+01       8.053e-01           0.205           0.108           0.973       2.707e-02         -0.0195
  89       8.588e+00      -1.341e+01       7.858e-01           0.207           0.109           0.972       1.690e-02          0.0598
  90       8.636e+00      -1.341e+01       7.759e-01           0.202           0.108           0.973       5.741e-03          0.1098
Strip 4
  91       8.565e+00      -1.313e+01       7.591e-01          -0.141          -0.093          -0.986       8.245e-03          0.2133
  92       8.515e+00      -1.313e+01       7.648e-01          -0.104          -0.083          -0.991       2.413e-02          0.2290
  93       8.419e+00      -1.313e+01       7.719e-01          -0.054          -0.070          -0.996       3.849e-02          0.2454
  94       8.281e+00      -1.313e+01       7.751e-01           0.000          -0.055          -0.999       5.063e-02          0.2324
  95       8.111e+00      -1.313e+01       7.700e-01           0.055          -0.038          -0.998       5.999e-02          0.1954
  96       7.917e+00      -1.313e+01       7.550e-01           0.098          -0.023          -0.995       6.603e-02          0.1307
  97       7.711e+00      -1.314e+01       7.328e-01           0.117          -0.016          -0.993       6.818e-02          0.0328
  98       7.505e+00      -1.314e+01       7.105e-01           0.098          -0.023          -0.995       6.607e-02         -0.0884
  99       7.312e+00      -1.314e+01       6.965e-01           0.043          -0.048          -0.998       6.000e-02         -0.1915
 100       7.141e+00      -1.314e+01       6.948e-01          -0.030          -0.082          -0.996       5.073e-02         -0.2432
 101       7.004e+00      -1.314e+01       7.049e-01          -0.128          -0.128          -0.983       3.890e-02         -0.2364
 102       6.907e+00      -1.314e+01       7.240e-01          -0.290          -0.207          -0.934       2.544e-02         -0.1236
 103       6.858e+00      -1.314e+01       7.463e-01          -0.622          -0.364          -0.693       1.148e-02          0.2383
 104       6.858e+00      -1.313e+01       7.795e-01          -0.794          -0.387           0.470       1.813e-02          0.5870
 105       6.907e+00      -1.313e+01       8.232e-01          -0.487          -0.209           0.848       2.865e-02         -0.2344
 106       7.004e+00      -1.313e+01       8.625e-01          -0.285          -0.102           0.953       4.055e-02         -0.5323
 107       7.141e+00      -1.313e+01       8.928e-01          -0.156          -0.038           0.987       5.139e-02         -0.6042
 108       7.312e+00      -1.313e+01       9.104e-01          -0.056           0.009           0.998       5.994e-02         -0.5895
 109       7.505e+00      -1.313e+01       9.131e-01           0.024           0.044           0.999       6.559e-02         -0.5144
 110       7.711e+00      -1.313e+01       9.018e-01           0.085           0.068           0.994       6.780e-02         -0.4121
 111       7.917e+00      -1.313e+01       8.796e-01           0.130           0.085           0.988       6.620e-02         -0.3105
 112       8.111e+00      -1.313e+01       8.503e-01           0.171           0.098           0.980       6.080e-02         -0.2076
 113       8.281e+00      -1.313e+01       8.187e-01           0.196           0.106           0.975       5.169e-02         -0.1070
 114       8.419e+00      -1.313e+01       7.907e-01           0.205           0.108           0.973       3.933e-02         -0.0179
 115       8.515e+00      -1.313e+01       7.704e-01           0.207           0.109           0.972       2.456e-02          0.0727
 116       8.565e+00      -1.313e+01       7.599e-01           0.202           0.108           0.973       8.342e-03          0.1286
Strip 5
 117       8.471e+00      -1.277e+01       7.380e-01          -0.141          -0.093          -0.986       1.110e-02          0.2200
 118       8.418e+00      -1.277e+01       7.440e-01          -0.104          -0.083          -0.991       3.249e-02          0.2378
 119       8.316e+00      -1.277e+01       7.515e-01          -0.054          -0.070          -0.996       5.182e-02          0.2568
 120       8.171e+00      -1.277e+01       7.549e-01           0.000          -0.055          -0.999       6.816e-02          0.2444
 121       7.991e+00      -1.277e+01       7.495e-01           0.055          -0.038          -0.998       8.075e-02          0.2063
 122       7.786e+00      -1.277e+01       7.336e-01           0.098          -0.023          -0.995       8.888e-02          0.1395
 123       7.569e+00      -1.277e+01       7.101e-01           0.117          -0.016          -0.993       9.177e-02          0.0398
 124       7.351e+00      -1.277e+01       6.866e-01           0.098          -0.023          -0.995       8.893e-02         -0.0815
 125       7.146e+00      -1.277e+01       6.718e-01           0.043          -0.048          -0.998       8.077e-02         -0.1824
 126       6.966e+00      -1.277e+01       6.701e-01          -0.030          -0.082          -0.996       6.829e-02         -0.2306
 127       6.821e+00      -1.277e+01       6.807e-01          -0.128          -0.128          -0.983       5.238e-02         -0.2201
 128       6.719e+00      -1.277e+01       7.009e-01          -0.290          -0.207          -0.934       3.426e-02         -0.1003
 129       6.667e+00      -1.277e+01       7.245e-01          -0.621          -0.364          -0.694       1.546e-02          0.2648
 130       6.667e+00      -1.277e+01       7.596e-01          -0.794          -0.387           0.468       2.438e-02          0.5799
 131       6.719e+00      -1.276e+01       8.057e-01          -0.487          -0.209           0.848       3.853e-02         -0.2532
 132       6.821e+00      -1.276e+01       8.473e-01          -0.286          -0.102           0.953       5.456e-02         -0.5539
 133       6.966e+00      -1.276e+01       8.793e-01          -0.157          -0.038           0.987       6.917e-02         -0.6301
 134       7.146e+00      -1.276e+01       8.979e-01          -0.056           0.009           0.998       8.069e-02         -0.6216
 135       7.351e+00      -1.276e+01       9.008e-01           0.024           0.044           0.999       8.830e-02         -0.5510
 136       7.569e+00      -1.276e+01       8.888e-01           0.085           0.068           0.994       9.128e-02         -0.4486
 137       7.786e+00      -1.276e+01       8.653e-01           0.130           0.085           0.988       8.913e-02         -0.3423
 138       7.991e+00      -1.276e+01       8.344e-01           0.170           0.098           0.980       8.187e-02         -0.2317
 139       8.171e+00      -1.276e+01       8.010e-01           0.195           0.106           0.975       6.960e-02         -0.1225
 140       8.316e+00      -1.277e+01       7.713e-01           0.205           0.108           0.973       5.295e-02         -0.0255
 141       8.418e+00      -1.277e+01       7.499e-01           0.207           0.109           0.972       3.307e-02          0.0716
 142       8.471e+00      -1.277e+01       7.389e-01           0.202           0.107           0.973       1.123e-02          0.1311
Strip 6
 143       8.354e+00      -1.231e+01       7.119e-01          -0.141          -0.093          -0.986       1.431e-02          0.2218
 144       8.298e+00      -1.231e+01       7.183e-01          -0.104          -0.083          -0.991       4.187e-02          0.2409
 145       8.190e+00      -1.231e+01       7.263e-01          -0.054          -0.070          -0.996       6.677e-02          0.2614
 146       8.035e+00      -1.231e+01       7.299e-01           0.000          -0.055          -0.999       8.782e-02          0.2498
 147       7.843e+00      -1.231e+01       7.241e-01           0.055          -0.038          -0.998       1.040e-01          0.2119
 148       7.624e+00      -1.231e+01       7.072e-01           0.098          -0.023          -0.995       1.145e-01          0.1451
 149       7.392e+00      -1.231e+01       6.822e-01           0.117          -0.016          -0.993       1.182e-01          0.0457
 150       7.160e+00      -1.231e+01       6.570e-01           0.098          -0.023          -0.995       1.146e-01         -0.0747
 151       6.942e+00      -1.231e+01       6.413e-01           0.043          -0.048          -0.998       1.041e-01         -0.1745
 152       6.750e+00      -1.231e+01       6.394e-01          -0.030          -0.082          -0.996       8.800e-02         -0.2217
 153       6.595e+00      -1.231e+01       6.508e-01          -0.128          -0.128          -0.983       6.751e-02         -0.2096
 154       6.486e+00      -1.231e+01       6.723e-01          -0.290          -0.207          -0.935       4.417e-02         -0.0862
 155       6.430e+00      -1.231e+01       6.975e-01          -0.621          -0.364          -0.695       1.994e-02          0.2804
 156       6.430e+00      -1.231e+01       7.349e-01          -0.795          -0.387           0.467       3.139e-02          0.5739
 157       6.486e+00      -1.231e+01       7.841e-01          -0.487          -0.209           0.848       4.960e-02         -0.2667
 158       6.595e+00      -1.231e+01       8.285e-01          -0.286          -0.103           0.953       7.026e-02         -0.5682
 159       6.750e+00      -1.231e+01       8.626e-01          -0.157          -0.038           0.987       8.909e-02         -0.6455
 160       6.942e+00      -1.230e+01       8.825e-01          -0.056           0.009           0.998       1.040e-01         -0.6389
 161       7.160e+00      -1.230e+01       8.855e-01           0.024           0.044           0.999       1.138e-01         -0.5702
 162       7.392e+00      -1.231e+01       8.727e-01           0.085           0.068           0.994       1.176e-01         -0.4682
 163       7.624e+00      -1.231e+01       8.477e-01           0.130           0.085           0.988       1.149e-01         -0.3606
 164       7.843e+00      -1.231e+01       8.147e-01           0.170           0.098           0.980       1.055e-01         -0.2468
 165       8.035e+00      -1.231e+01       7.791e-01           0.195           0.106           0.975       8.969e-02         -0.1334
 166       8.190e+00      -1.231e+01       7.475e-01           0.205           0.108           0.973       6.825e-02         -0.0324
 167       8.298e+00      -1.231e+01       7.246e-01           0.207           0.109           0.972       4.262e-02          0.0684
 168       8.354e+00      -1.231e+01       7.128e-01           0.202           0.107           0.973       1.447e-02          0.1299
Strip 7
 169       8.216e+00      -1.177e+01       6.810e-01          -0.141          -0.093          -0.986       1.791e-02          0.2222
 170       8.156e+00      -1.177e+01       6.879e-01          -0.104          -0.083          -0.991       5.241e-02          0.2420
 171       8.040e+00      -1.177e+01       6.964e-01          -0.054          -0.070          -0.996       8.357e-02          0.2636
 172       7.873e+00      -1.177e+01       7.003e-01           0.000          -0.055          -0.999       1.099e-01          0.2525
 173       7.667e+00      -1.177e+01       6.941e-01           0.055          -0.038          -0.998       1.302e-01          0.2151
 174       7.432e+00      -1.177e+01       6.759e-01           0.098          -0.023          -0.995       1.433e-01          0.1487
 175       7.183e+00      -1.177e+01       6.490e-01           0.117          -0.016          -0.993       1.479e-01          0.0497
 176       6.934e+00      -1.178e+01       6.220e-01           0.098          -0.023          -0.995       1.433e-01         -0.0704
 177       6.700e+00      -1.178e+01       6.051e-01           0.043          -0.048          -0.998       1.302e-01         -0.1699
 178       6.493e+00      -1.178e+01       6.031e-01          -0.030          -0.082          -0.996       1.101e-01         -0.2169
 179       6.327e+00      -1.178e+01       6.153e-01          -0.128          -0.128          -0.983       8.451e-02         -0.2045
 180       6.211e+00      -1.177e+01       6.384e-01          -0.289          -0.207          -0.935       5.531e-02         -0.0800
 181       6.150e+00      -1.177e+01       6.655e-01          -0.620          -0.363          -0.695       2.499e-02          0.2865
 182       6.150e+00      -1.177e+01       7.057e-01          -0.796          -0.388           0.466       3.925e-02          0.5721
 183       6.211e+00      -1.177e+01       7.586e-01          -0.488          -0.209           0.847       6.202e-02         -0.2727
 184       6.327e+00      -1.177e+01       8.062e-01          -0.286          -0.103           0.953       8.787e-02         -0.5752
 185       6.493e+00      -1.177e+01       8.429e-01          -0.157          -0.038           0.987       1.115e-01         -0.6533
 186       6.700e+00      -1.177e+01       8.642e-01          -0.056           0.009           0.998       1.301e-01         -0.6477
 187       6.934e+00      -1.177e+01       8.674e-01           0.024           0.044           0.999       1.424e-01         -0.5797
 188       7.183e+00      -1.177e+01       8.537e-01           0.085           0.068           0.994       1.472e-01         -0.4781
 189       7.432e+00      -1.177e+01       8.268e-01           0.130           0.085           0.988       1.438e-01         -0.3699
 190       7.667e+00      -1.177e+01       7.914e-01           0.170           0.098           0.980       1.321e-01         -0.2548
 191       7.873e+00      -1.177e+01       7.531e-01           0.195           0.106           0.975       1.123e-01         -0.1396
 192       8.040e+00      -1.177e+01       7.192e-01           0.205           0.108           0.973       8.543e-02         -0.0367
 193       8.156e+00      -1.177e+01       6.946e-01           0.207           0.109           0.972       5.336e-02          0.0658
 194       8.216e+00      -1.177e+01       6.820e-01           0.202           0.107           0.973       1.812e-02          0.1284
Strip 8
 195       8.058e+00      -1.115e+01       6.454e-01          -0.141          -0.093          -0.986       2.194e-02          0.2224
 196       7.993e+00      -1.115e+01       6.529e-01          -0.104          -0.083          -0.991       6.419e-02          0.2426
 197       7.867e+00      -1.115e+01       6.621e-01          -0.054          -0.070          -0.996       1.024e-01          0.2647
 198       7.688e+00      -1.115e+01       6.663e-01           0.000          -0.055          -0.999       1.346e-01          0.2541
 199       7.465e+00      -1.115e+01       6.596e-01           0.055          -0.038          -0.998       1.594e-01          0.2169
 200       7.212e+00      -1.115e+01       6.400e-01           0.098          -0.023          -0.995       1.754e-01          0.1507
 201       6.943e+00      -1.115e+01       6.110e-01           0.117          -0.016          -0.993       1.811e-01          0.0517
 202       6.675e+00      -1.116e+01       5.818e-01           0.099          -0.023          -0.995       1.755e-01         -0.0685
 203       6.422e+00      -1.116e+01       5.635e-01           0.043          -0.048          -0.998       1.595e-01         -0.1682
 204       6.199e+00      -1.116e+01       5.614e-01          -0.030          -0.082          -0.996       1.349e-01         -0.2157
 205       6.019e+00      -1.116e+01       5.746e-01          -0.128          -0.128          -0.983       1.035e-01         -0.2041
 206       5.894e+00      -1.115e+01       5.995e-01          -0.289          -0.207          -0.935       6.779e-02         -0.0803
 207       5.829e+00      -1.115e+01       6.287e-01          -0.619          -0.363          -0.696       3.064e-02          0.2845
 208       5.829e+00      -1.115e+01       6.721e-01          -0.796          -0.388           0.464       4.804e-02          0.5746
 209       5.894e+00      -1.115e+01       7.292e-01          -0.488          -0.210           0.847       7.589e-02         -0.2717
 210       6.019e+00      -1.115e+01       7.806e-01          -0.286          -0.103           0.953       1.076e-01         -0.5763
 211       6.199e+00      -1.115e+01       8.202e-01          -0.157          -0.038           0.987       1.365e-01         -0.6556
 212       6.422e+00      -1.115e+01       8.431e-01          -0.056           0.009           0.998       1.593e-01         -0.6509
 213       6.675e+00      -1.115e+01       8.467e-01           0.024           0.044           0.999       1.744e-01         -0.5837
 214       6.943e+00      -1.115e+01       8.318e-01           0.085           0.068           0.994       1.804e-01         -0.4824
 215       7.212e+00      -1.115e+01       8.028e-01           0.130           0.085           0.988       1.761e-01         -0.3742
 216       7.465e+00      -1.115e+01       7.646e-01           0.170           0.098           0.980       1.618e-01         -0.2586
 217       7.688e+00      -1.115e+01       7.233e-01           0.195           0.106           0.975       1.376e-01         -0.1427
 218       7.867e+00      -1.115e+01       6.866e-01           0.205           0.108           0.973       1.047e-01         -0.0390
 219       7.993e+00      -1.115e+01       6.601e-01           0.207           0.109           0.972       6.537e-02          0.0643
 220       8.058e+00      -1.115e+01       6.465e-01           0.202           0.107           0.973       2.220e-02          0.1274
Strip 9
 221       7.880e+00      -1.046e+01       6.055e-01          -0.141          -0.093          -0.986       2.641e-02          0.2224
 222       7.810e+00      -1.046e+01       6.135e-01          -0.104          -0.083          -0.991       7.728e-02          0.2429
 223       7.673e+00      -1.046e+01       6.236e-01          -0.054          -0.070          -0.996       1.232e-01          0.2653
 224       7.479e+00      -1.046e+01       6.280e-01           0.000          -0.055          -0.999       1.620e-01          0.2548
 225       7.238e+00      -1.046e+01       6.208e-01           0.055          -0.038          -0.998       1.919e-01          0.2177
 226       6.964e+00      -1.046e+01       5.996e-01           0.098          -0.023          -0.995       2.111e-01          0.1515
 227       6.674e+00      -1.046e+01       5.682e-01           0.117          -0.016          -0.993       2.180e-01          0.0523
 228       6.383e+00      -1.046e+01       5.367e-01           0.099          -0.023          -0.995       2.112e-01         -0.0684
 229       6.109e+00      -1.046e+01       5.168e-01           0.043          -0.048          -0.998       1.919e-01         -0.1687
 230       5.868e+00      -1.046e+01       5.146e-01          -0.030          -0.082          -0.996       1.624e-01         -0.2173
 231       5.674e+00      -1.046e+01       5.288e-01          -0.128          -0.128          -0.983       1.247e-01         -0.2071
 232       5.538e+00      -1.046e+01       5.558e-01          -0.289          -0.207          -0.935       8.165e-02         -0.0859
 233       5.468e+00      -1.046e+01       5.874e-01          -0.619          -0.363          -0.697       3.691e-02          0.2763
 234       5.468e+00      -1.046e+01       6.344e-01          -0.797          -0.389           0.463       5.777e-02          0.5808
 235       5.538e+00      -1.046e+01       6.961e-01          -0.489          -0.210           0.847       9.126e-02         -0.2652
 236       5.674e+00      -1.045e+01       7.518e-01          -0.286          -0.103           0.953       1.294e-01         -0.5726
 237       5.868e+00      -1.045e+01       7.946e-01          -0.157          -0.038           0.987       1.642e-01         -0.6538
 238       6.109e+00      -1.045e+01       8.195e-01          -0.056           0.009           0.998       1.917e-01         -0.6504
 239       6.383e+00      -1.045e+01       8.233e-01           0.024           0.044           0.999       2.099e-01         -0.5841
 240       6.674e+00      -1.045e+01       8.073e-01           0.085           0.068           0.994       2.171e-01         -0.4834
 241       6.964e+00      -1.045e+01       7.759e-01           0.130           0.085           0.988       2.121e-01         -0.3755
 242       7.238e+00      -1.045e+01       7.345e-01           0.170           0.098           0.980       1.948e-01         -0.2600
 243       7.479e+00      -1.046e+01       6.898e-01           0.195           0.105           0.975       1.656e-01         -0.1440
 244       7.673e+00      -1.046e+01       6.501e-01           0.205           0.108           0.973       1.260e-01         -0.0401
 245       7.810e+00      -1.046e+01       6.214e-01           0.207           0.109           0.972       7.870e-02          0.0635
 246       7.880e+00      -1.046e+01       6.067e-01           0.202           0.107           0.973       2.672e-02          0.1268
Strip 10
 247       7.683e+00      -9.690e+00       5.615e-01          -0.141          -0.093          -0.986       3.131e-02          0.2224
 248       7.607e+00      -9.690e+00       5.702e-01          -0.104          -0.083          -0.991       9.164e-02          0.2429
 249       7.460e+00      -9.690e+00       5.811e-01          -0.054          -0.070          -0.996       1.461e-01          0.2655
 250       7.249e+00      -9.690e+00       5.859e-01           0.000          -0.055          -0.999       1.921e-01          0.2551
 251       6.988e+00      -9.690e+00       5.781e-01           0.055          -0.038          -0.998       2.275e-01          0.2179
 252       6.691e+00      -9.691e+00       5.551e-01           0.098          -0.023          -0.995       2.503e-01          0.1514
 253       6.376e+00      -9.691e+00       5.210e-01           0.117          -0.016          -0.993       2.584e-01          0.0518
 254       6.061e+00      -9.692e+00       4.869e-01           0.099          -0.023          -0.995       2.504e-01         -0.0695
 255       5.764e+00      -9.693e+00       4.654e-01           0.043          -0.048          -0.998       2.276e-01         -0.1709
 256       5.503e+00      -9.693e+00       4.629e-01          -0.030          -0.082          -0.996       1.925e-01         -0.2209
 257       5.293e+00      -9.692e+00       4.784e-01          -0.128          -0.128          -0.983       1.478e-01         -0.2129
 258       5.145e+00      -9.692e+00       5.076e-01          -0.289          -0.207          -0.935       9.686e-02         -0.0955
 259       5.069e+00      -9.691e+00       5.419e-01          -0.618          -0.362          -0.697       4.381e-02          0.2629
 260       5.069e+00      -9.690e+00       5.928e-01          -0.797          -0.389           0.461       6.845e-02          0.5898
 261       5.145e+00      -9.688e+00       6.597e-01          -0.489          -0.210           0.846       1.081e-01         -0.2542
 262       5.293e+00      -9.687e+00       7.201e-01          -0.286          -0.103           0.953       1.533e-01         -0.5653
 263       5.503e+00      -9.686e+00       7.665e-01          -0.157          -0.038           0.987       1.946e-01         -0.6490
 264       5.764e+00      -9.685e+00       7.934e-01          -0.056           0.009           0.998       2.273e-01         -0.6472
 265       6.061e+00      -9.685e+00       7.976e-01           0.024           0.044           0.999       2.489e-01         -0.5822
 266       6.376e+00      -9.685e+00       7.802e-01           0.085           0.068           0.994       2.575e-01         -0.4824
 267       6.691e+00      -9.686e+00       7.462e-01           0.130           0.085           0.988       2.515e-01         -0.3751
 268       6.988e+00      -9.687e+00       7.013e-01           0.170           0.098           0.981       2.310e-01         -0.2600
 269       7.249e+00      -9.688e+00       6.528e-01           0.195           0.105           0.975       1.964e-01         -0.1442
 270       7.460e+00      -9.689e+00       6.098e-01           0.205           0.108           0.973       1.494e-01         -0.0405
 271       7.607e+00      -9.690e+00       5.787e-01           0.206           0.109           0.972       9.333e-02          0.0631
 272       7.683e+00      -9.690e+00       5.627e-01           0.202           0.107           0.973       3.169e-02          0.1264
Strip 11
 273       7.470e+00      -8.857e+00       5.137e-01          -0.141          -0.093          -0.986       3.664e-02          0.2223
 274       7.388e+00      -8.857e+00       5.231e-01          -0.104          -0.083          -0.991       1.072e-01          0.2429
 275       7.228e+00      -8.857e+00       5.349e-01          -0.054          -0.070          -0.996       1.709e-01          0.2654
 276       7.000e+00      -8.857e+00       5.402e-01           0.000          -0.055          -0.999       2.247e-01          0.2550
 277       6.717e+00      -8.857e+00       5.317e-01           0.055          -0.038          -0.998       2.661e-01          0.2176
 278       6.395e+00      -8.857e+00       5.068e-01           0.098          -0.023          -0.995       2.928e-01          0.1508
 279       6.053e+00      -8.858e+00       4.698e-01           0.117          -0.016          -0.993       3.022e-01          0.0506
 280       5.712e+00      -8.859e+00       4.328e-01           0.099          -0.023          -0.995       2.929e-01         -0.0717
 281       5.390e+00      -8.859e+00       4.095e-01           0.043          -0.048          -0.998       2.662e-01         -0.1744
 282       5.107e+00      -8.859e+00       4.068e-01          -0.030          -0.082          -0.996       2.252e-01         -0.2261
 283       4.879e+00      -8.859e+00       4.235e-01          -0.128          -0.128          -0.983       1.730e-01         -0.2209
 284       4.719e+00      -8.858e+00       4.552e-01          -0.289          -0.206          -0.935       1.134e-01         -0.1083
 285       4.637e+00      -8.858e+00       4.924e-01          -0.618          -0.362          -0.698       5.129e-02          0.2454
 286       4.637e+00      -8.856e+00       5.476e-01          -0.798          -0.389           0.460       8.002e-02          0.6008
 287       4.719e+00      -8.855e+00       6.202e-01          -0.490          -0.210           0.846       1.264e-01         -0.2396
 288       4.879e+00      -8.854e+00       6.856e-01          -0.287          -0.103           0.952       1.793e-01         -0.5552
 289       5.107e+00      -8.853e+00       7.359e-01          -0.157          -0.038           0.987       2.276e-01         -0.6419
 290       5.390e+00      -8.852e+00       7.651e-01          -0.056           0.009           0.998       2.659e-01         -0.6422
 291       5.712e+00      -8.852e+00       7.696e-01           0.024           0.044           0.999       2.912e-01         -0.5786
 292       6.053e+00      -8.852e+00       7.508e-01           0.085           0.068           0.994       3.012e-01         -0.4800
 293       6.395e+00      -8.853e+00       7.139e-01           0.130           0.085           0.988       2.942e-01         -0.3736
 294       6.717e+00      -8.854e+00       6.652e-01           0.170           0.098           0.981       2.703e-01         -0.2591
 295       7.000e+00      -8.855e+00       6.127e-01           0.195           0.105           0.975       2.298e-01         -0.1438
 296       7.228e+00      -8.856e+00       5.661e-01           0.205           0.108           0.973       1.748e-01         -0.0404
 297       7.388e+00      -8.857e+00       5.324e-01           0.206           0.109           0.972       1.092e-01          0.0630
 298       7.470e+00      -8.857e+00       5.150e-01           0.202           0.107           0.973       3.708e-02          0.1262
Strip 12
 299       7.241e+00      -7.963e+00       4.624e-01          -0.141          -0.093          -0.986       4.232e-02          0.2221
 300       7.152e+00      -7.963e+00       4.726e-01          -0.104          -0.083          -0.991       1.238e-01          0.2427
 301       6.979e+00      -7.963e+00       4.854e-01          -0.054          -0.070          -0.996       1.974e-01          0.2652
 302       6.732e+00      -7.963e+00       4.911e-01           0.000          -0.055          -0.999       2.596e-01          0.2546
 303       6.425e+00      -7.963e+00       4.819e-01           0.055          -0.038          -0.998       3.074e-01          0.2170
 304       6.077e+00      -7.963e+00       4.549e-01           0.098          -0.023          -0.995       3.381e-01          0.1498
 305       5.707e+00      -7.964e+00       4.149e-01           0.117          -0.016          -0.993       3.490e-01          0.0488
 306       5.337e+00      -7.965e+00       3.747e-01           0.099          -0.023          -0.995       3.383e-01         -0.0746
 307       4.989e+00      -7.965e+00       3.495e-01           0.043          -0.048          -0.998       3.074e-01         -0.1788
 308       4.682e+00      -7.965e+00       3.466e-01          -0.030          -0.082          -0.996       2.602e-01         -0.2326
 309       4.435e+00      -7.965e+00       3.647e-01          -0.128          -0.128          -0.983       1.999e-01         -0.2305
 310       4.262e+00      -7.964e+00       3.991e-01          -0.289          -0.206          -0.935       1.310e-01         -0.1238
 311       4.173e+00      -7.964e+00       4.394e-01          -0.617          -0.362          -0.699       5.929e-02          0.2243
 312       4.173e+00      -7.963e+00       4.991e-01          -0.798          -0.390           0.459       9.237e-02          0.6133
 313       4.262e+00      -7.961e+00       5.778e-01          -0.490          -0.211           0.846       1.459e-01         -0.2220
 314       4.435e+00      -7.960e+00       6.486e-01          -0.287          -0.103           0.952       2.070e-01         -0.5427
 315       4.682e+00      -7.959e+00       7.032e-01          -0.157          -0.038           0.987       2.629e-01         -0.6329
 316       4.989e+00      -7.959e+00       7.348e-01          -0.056           0.009           0.998       3.071e-01         -0.6356
 317       5.337e+00      -7.959e+00       7.397e-01           0.024           0.044           0.999       3.364e-01         -0.5739
 318       5.707e+00      -7.959e+00       7.192e-01           0.085           0.068           0.994       3.480e-01         -0.4767
 319       6.077e+00      -7.960e+00       6.793e-01           0.130           0.085           0.988       3.399e-01         -0.3713
 320       6.425e+00      -7.961e+00       6.265e-01           0.170           0.098           0.981       3.123e-01         -0.2577
 321       6.732e+00      -7.961e+00       5.697e-01           0.195           0.105           0.975       2.655e-01         -0.1430
 322       6.979e+00      -7.962e+00       5.192e-01           0.205           0.108           0.973       2.020e-01         -0.0400
 323       7.152e+00      -7.963e+00       4.826e-01           0.206           0.109           0.972       1.262e-01          0.0630
 324       7.241e+00      -7.963e+00       4.638e-01           0.202           0.107           0.973       4.284e-02          0.1260
Strip 13
 325       6.999e+00      -7.015e+00       4.080e-01          -0.141          -0.093          -0.986       4.831e-02          0.2219
 326       6.902e+00      -7.015e+00       4.190e-01          -0.104          -0.083          -0.991       1.414e-01          0.2423
 327       6.715e+00      -7.015e+00       4.328e-01          -0.054          -0.070          -0.996       2.254e-01          0.2647
 328       6.448e+00      -7.015e+00       4.390e-01           0.000          -0.055          -0.999       2.963e-01          0.2540
 329       6.116e+00      -7.015e+00       4.291e-01           0.055          -0.038          -0.998       3.508e-01          0.2161
 330       5.739e+00      -7.015e+00       3.999e-01           0.098          -0.023          -0.995       3.859e-01          0.1484
 331       5.339e+00      -7.016e+00       3.566e-01           0.117          -0.016          -0.993       3.983e-01          0.0465
 332       4.939e+00      -7.016e+00       3.132e-01           0.099          -0.023          -0.995       3.861e-01         -0.0782
 333       4.563e+00      -7.017e+00       2.859e-01           0.043          -0.048          -0.998       3.509e-01         -0.1841
 334       4.231e+00      -7.017e+00       2.827e-01          -0.030          -0.082          -0.996       2.970e-01         -0.2401
 335       3.964e+00      -7.017e+00       3.024e-01          -0.128          -0.128          -0.983       2.282e-01         -0.2417
 336       3.777e+00      -7.016e+00       3.395e-01          -0.289          -0.206          -0.935       1.496e-01         -0.1419
 337       3.680e+00      -7.015e+00       3.831e-01          -0.617          -0.362          -0.699       6.772e-02          0.1997
 338       3.680e+00      -7.015e+00       4.477e-01          -0.799          -0.390           0.458       1.054e-01          0.6268
 339       3.777e+00      -7.013e+00       5.328e-01          -0.490          -0.211           0.846       1.664e-01         -0.2020
 340       3.964e+00      -7.012e+00       6.094e-01          -0.287          -0.103           0.952       2.362e-01         -0.5282
 341       4.231e+00      -7.011e+00       6.684e-01          -0.157          -0.038           0.987       3.000e-01         -0.6224
 342       4.563e+00      -7.011e+00       7.026e-01          -0.056           0.009           0.998       3.505e-01         -0.6278
 343       4.939e+00      -7.011e+00       7.079e-01           0.024           0.044           0.999       3.840e-01         -0.5681
 344       5.339e+00      -7.011e+00       6.858e-01           0.085           0.068           0.994       3.972e-01         -0.4726
 345       5.739e+00      -7.012e+00       6.426e-01           0.130           0.085           0.988       3.880e-01         -0.3684
 346       6.116e+00      -7.013e+00       5.855e-01           0.170           0.098           0.981       3.565e-01         -0.2558
 347       6.448e+00      -7.013e+00       5.240e-01           0.195           0.105           0.975       3.031e-01         -0.1419
 348       6.715e+00      -7.014e+00       4.694e-01           0.205           0.108           0.973       2.306e-01         -0.0395
 349       6.902e+00      -7.015e+00       4.299e-01           0.206           0.109           0.972       1.440e-01          0.0631
 350       6.999e+00      -7.015e+00       4.096e-01           0.202           0.107           0.973       4.891e-02          0.1258
Strip 14
 351       6.744e+00      -6.019e+00       3.508e-01          -0.141          -0.093          -0.986       5.452e-02          0.2216
 352       6.640e+00      -6.019e+00       3.627e-01          -0.104          -0.083          -0.991       1.595e-01          0.2419
 353       6.438e+00      -6.019e+00       3.776e-01          -0.054          -0.070          -0.996       2.543e-01          0.2641
 354       6.149e+00      -6.019e+00       3.843e-01           0.000          -0.055          -0.999       3.343e-01          0.2531
 355       5.791e+00      -6.019e+00       3.736e-01           0.055          -0.038          -0.998       3.959e-01          0.2150
 356       5.385e+00      -6.019e+00       3.421e-01           0.098          -0.023          -0.995       4.354e-01          0.1466
 357       4.953e+00      -6.020e+00       2.954e-01           0.117          -0.016          -0.993       4.494e-01          0.0438
 358       4.522e+00      -6.020e+00       2.485e-01           0.099          -0.023          -0.995       4.356e-01         -0.0823
 359       4.115e+00      -6.020e+00       2.190e-01           0.043          -0.048          -0.998       3.959e-01         -0.1902
 360       3.757e+00      -6.020e+00       2.157e-01          -0.030          -0.082          -0.996       3.352e-01         -0.2487
 361       3.469e+00      -6.020e+00       2.368e-01          -0.128          -0.128          -0.983       2.575e-01         -0.2544
 362       3.267e+00      -6.020e+00       2.769e-01          -0.288          -0.206          -0.935       1.689e-01         -0.1622
 363       3.163e+00      -6.019e+00       3.239e-01          -0.616          -0.362          -0.700       7.647e-02          0.1716
 364       3.163e+00      -6.018e+00       3.937e-01          -0.799          -0.390           0.457       1.189e-01          0.6411
 365       3.267e+00      -6.017e+00       4.855e-01          -0.491          -0.211           0.845       1.876e-01         -0.1794
 366       3.469e+00      -6.017e+00       5.682e-01          -0.287          -0.103           0.952       2.664e-01         -0.5116
 367       3.757e+00      -6.016e+00       6.318e-01          -0.157          -0.038           0.987       3.384e-01         -0.6102
 368       4.115e+00      -6.015e+00       6.688e-01          -0.056           0.009           0.998       3.955e-01         -0.6188
 369       4.522e+00      -6.015e+00       6.745e-01           0.024           0.044           0.999       4.333e-01         -0.5615
 370       4.953e+00      -6.016e+00       6.506e-01           0.085           0.068           0.994       4.483e-01         -0.4678
 371       5.385e+00      -6.016e+00       6.040e-01           0.130           0.085           0.988       4.379e-01         -0.3651
 372       5.791e+00      -6.017e+00       5.424e-01           0.170           0.098           0.981       4.024e-01         -0.2536
 373       6.149e+00      -6.018e+00       4.760e-01           0.195           0.105           0.975       3.421e-01         -0.1407
 374       6.438e+00      -6.018e+00       4.171e-01           0.205           0.108           0.973       2.603e-01         -0.0390
 375       6.640e+00      -6.019e+00       3.744e-01           0.206           0.108           0.972       1.625e-01          0.0631
 376       6.744e+00      -6.019e+00       3.525e-01           0.202           0.107           0.974       5.519e-02          0.1255
Strip 15
 377       6.478e+00      -4.982e+00       2.913e-01          -0.141          -0.093          -0.986       6.086e-02          0.2210
 378       6.366e+00      -4.982e+00       3.041e-01          -0.104          -0.083          -0.991       1.781e-01          0.2412
 379       6.149e+00      -4.981e+00       3.201e-01          -0.054          -0.070          -0.996       2.838e-01          0.2632
 380       5.839e+00      -4.981e+00       3.273e-01           0.000          -0.055          -0.999       3.731e-01          0.2521
 381       5.453e+00      -4.981e+00       3.158e-01           0.055          -0.038          -0.998       4.418e-01          0.2135
 382       5.016e+00      -4.982e+00       2.819e-01           0.098          -0.023          -0.995       4.859e-01          0.1445
 383       4.551e+00      -4.982e+00       2.316e-01           0.117          -0.016          -0.993       5.015e-01          0.0407
 384       4.087e+00      -4.983e+00       1.812e-01           0.099          -0.023          -0.995       4.861e-01         -0.0871
 385       3.649e+00      -4.983e+00       1.495e-01           0.043          -0.048          -0.998       4.419e-01         -0.1970
 386       3.264e+00      -4.983e+00       1.458e-01          -0.030          -0.082          -0.996       3.741e-01         -0.2583
 387       2.954e+00      -4.983e+00       1.686e-01          -0.128          -0.128          -0.983       2.874e-01         -0.2684
 388       2.737e+00      -4.982e+00       2.117e-01          -0.288          -0.206          -0.935       1.886e-01         -0.1849
 389       2.625e+00      -4.982e+00       2.624e-01          -0.616          -0.361          -0.700       8.540e-02          0.1397
 390       2.625e+00      -4.981e+00       3.374e-01          -0.800          -0.391           0.456       1.326e-01          0.6560
 391       2.737e+00      -4.980e+00       4.362e-01          -0.491          -0.211           0.845       2.093e-01         -0.1544
 392       2.954e+00      -4.980e+00       5.253e-01          -0.287          -0.103           0.952       2.972e-01         -0.4928
 393       3.264e+00      -4.979e+00       5.938e-01          -0.157          -0.039           0.987       3.776e-01         -0.5963
 394       3.649e+00      -4.979e+00       6.336e-01          -0.056           0.009           0.998       4.413e-01         -0.6084
 395       4.087e+00      -4.979e+00       6.397e-01           0.024           0.044           0.999       4.836e-01         -0.5539
 396       4.551e+00      -4.979e+00       6.140e-01           0.085           0.068           0.994       5.004e-01         -0.4625
 397       5.016e+00      -4.979e+00       5.638e-01           0.130           0.085           0.988       4.888e-01         -0.3616
 398       5.453e+00      -4.980e+00       4.975e-01           0.170           0.098           0.981       4.492e-01         -0.2514
 399       5.839e+00      -4.981e+00       4.261e-01           0.195           0.105           0.975       3.818e-01         -0.1394
 400       6.149e+00      -4.981e+00       3.626e-01           0.205           0.108           0.973       2.905e-01         -0.0385
 401       6.366e+00      -4.981e+00       3.167e-01           0.206           0.108           0.972       1.814e-01          0.0630
 402       6.478e+00      -4.982e+00       2.931e-01           0.202           0.107           0.974       6.161e-02          0.1250
Strip 16
 403       6.204e+00      -3.910e+00       2.298e-01          -0.141          -0.093          -0.986       6.720e-02          0.2201
 404       6.084e+00      -3.910e+00       2.436e-01          -0.104          -0.083          -0.991       1.966e-01          0.2403
 405       5.851e+00      -3.910e+00       2.608e-01          -0.054          -0.070          -0.996       3.134e-01          0.2621
 406       5.518e+00      -3.910e+00       2.685e-01           0.000          -0.055          -0.999       4.120e-01          0.2506
 407       5.104e+00      -3.910e+00       2.561e-01           0.055          -0.038          -0.998       4.878e-01          0.2116
 408       4.635e+00      -3.910e+00       2.197e-01           0.098          -0.023          -0.995       5.365e-01          0.1419
 409       4.136e+00      -3.911e+00       1.658e-01           0.117          -0.016          -0.993       5.537e-01          0.0369
 410       3.638e+00      -3.911e+00       1.116e-01           0.099          -0.023          -0.995       5.366e-01         -0.0925
 411       3.168e+00      -3.911e+00       7.758e-02           0.043          -0.048          -0.998       4.878e-01         -0.2045
 412       2.755e+00      -3.911e+00       7.367e-02          -0.030          -0.082          -0.996       4.130e-01         -0.2687
 413       2.422e+00      -3.911e+00       9.814e-02          -0.128          -0.128          -0.983       3.174e-01         -0.2836
 414       2.189e+00      -3.911e+00       1.444e-01          -0.288          -0.206          -0.935       2.082e-01         -0.2099
 415       2.068e+00      -3.911e+00       1.988e-01          -0.616          -0.361          -0.700       9.433e-02          0.1036
 416       2.068e+00      -3.910e+00       2.793e-01          -0.800          -0.391           0.455       1.463e-01          0.6714
 417       2.189e+00      -3.909e+00       3.854e-01          -0.491          -0.211           0.845       2.310e-01         -0.1259
 418       2.422e+00      -3.909e+00       4.810e-01          -0.287          -0.103           0.952       3.280e-01         -0.4708
 419       2.755e+00      -3.908e+00       5.545e-01          -0.157          -0.039           0.987       4.169e-01         -0.5801
 420       3.168e+00      -3.908e+00       5.972e-01          -0.056           0.009           0.998       4.872e-01         -0.5964
 421       3.638e+00      -3.908e+00       6.038e-01           0.024           0.044           0.999       5.340e-01         -0.5454
 422       4.136e+00      -3.908e+00       5.762e-01           0.085           0.068           0.994       5.525e-01         -0.4568
 423       4.635e+00      -3.909e+00       5.223e-01           0.130           0.085           0.988       5.398e-01         -0.3580
 424       5.104e+00      -3.909e+00       4.512e-01           0.170           0.098           0.981       4.960e-01         -0.2494
 425       5.518e+00      -3.909e+00       3.745e-01           0.195           0.105           0.975       4.216e-01         -0.1385
 426       5.851e+00      -3.910e+00       3.064e-01           0.205           0.108           0.973       3.208e-01         -0.0383
 427       6.084e+00      -3.910e+00       2.571e-01           0.206           0.108           0.972       2.003e-01          0.0625
 428       6.204e+00      -3.910e+00       2.318e-01           0.202           0.107           0.974       6.803e-02          0.1243
Strip 17
 429       5.923e+00      -2.812e+00       1.668e-01          -0.141          -0.093          -0.986       7.342e-02          0.2191
 430       5.794e+00      -2.812e+00       1.816e-01          -0.104          -0.083          -0.991       2.148e-01          0.2388
 431       5.545e+00      -2.812e+00       2.000e-01          -0.054          -0.070          -0.996       3.424e-01          0.2602
 432       5.189e+00      -2.812e+00       2.082e-01           0.000          -0.055          -0.999       4.501e-01          0.2485
 433       4.746e+00      -2.812e+00       1.950e-01           0.055          -0.038          -0.998       5.329e-01          0.2088
 434       4.244e+00      -2.812e+00       1.560e-01           0.098          -0.023          -0.995       5.861e-01          0.1382
 435       3.711e+00      -2.813e+00       9.826e-02           0.117          -0.016          -0.993       6.049e-01          0.0318
 436       3.177e+00      -2.813e+00       4.032e-02           0.099          -0.023          -0.995       5.863e-01         -0.0991
 437       2.675e+00      -2.813e+00       3.916e-03           0.043          -0.048          -0.998       5.330e-01         -0.2127
 438       2.233e+00      -2.813e+00      -2.671e-04          -0.030          -0.082          -0.996       4.513e-01         -0.2792
 439       1.877e+00      -2.813e+00       2.591e-02          -0.128          -0.128          -0.983       3.468e-01         -0.2988
 440       1.627e+00      -2.813e+00       7.545e-02          -0.288          -0.206          -0.935       2.276e-01         -0.2356
 441       1.498e+00      -2.812e+00       1.336e-01          -0.615          -0.361          -0.701       1.031e-01          0.0636
 442       1.498e+00      -2.812e+00       2.198e-01          -0.800          -0.391           0.455       1.598e-01          0.6877
 443       1.627e+00      -2.812e+00       3.333e-01          -0.491          -0.211           0.845       2.523e-01         -0.0925
 444       1.877e+00      -2.811e+00       4.356e-01          -0.287          -0.103           0.952       3.583e-01         -0.4437
 445       2.233e+00      -2.811e+00       5.142e-01          -0.157          -0.039           0.987       4.554e-01         -0.5595
 446       2.675e+00      -2.811e+00       5.599e-01          -0.056           0.009           0.998       5.323e-01         -0.5815
 447       3.177e+00      -2.811e+00       5.669e-01           0.024           0.044           0.999       5.834e-01         -0.5357
 448       3.711e+00      -2.811e+00       5.375e-01           0.085           0.068           0.994       6.037e-01         -0.4513
 449       4.244e+00      -2.811e+00       4.798e-01           0.130           0.085           0.988       5.898e-01         -0.3553
 450       4.746e+00      -2.811e+00       4.037e-01           0.170           0.098           0.981       5.419e-01         -0.2484
 451       5.189e+00      -2.812e+00       3.216e-01           0.195           0.105           0.975       4.607e-01         -0.1385
 452       5.545e+00      -2.812e+00       2.487e-01           0.205           0.108           0.973       3.505e-01         -0.0389
 453       5.794e+00      -2.812e+00       1.960e-01           0.206           0.108           0.972       2.189e-01          0.0614
 454       5.923e+00      -2.812e+00       1.689e-01           0.202           0.107           0.974       7.433e-02          0.1228
Strip 18
 455       5.637e+00      -1.695e+00       1.027e-01          -0.141          -0.093          -0.986       7.940e-02          0.2169
 456       5.500e+00      -1.695e+00       1.184e-01          -0.104          -0.083          -0.991       2.323e-01          0.2365
 457       5.234e+00      -1.695e+00       1.381e-01          -0.054          -0.070          -0.996       3.703e-01          0.2574
 458       4.854e+00      -1.695e+00       1.468e-01           0.000          -0.055          -0.999       4.867e-01          0.2447
 459       4.382e+00      -1.695e+00       1.327e-01           0.055          -0.038          -0.998       5.762e-01          0.2037
 460       3.846e+00      -1.695e+00       9.115e-02           0.098          -0.023          -0.995       6.337e-01          0.1315
 461       3.278e+00      -1.695e+00       2.958e-02           0.117          -0.016          -0.993       6.540e-01          0.0239
 462       2.709e+00      -1.695e+00      -3.221e-02           0.099          -0.023          -0.995       6.339e-01         -0.1074
 463       2.173e+00      -1.696e+00      -7.104e-02           0.043          -0.048          -0.998       5.763e-01         -0.2204
 464       1.702e+00      -1.696e+00      -7.550e-02          -0.030          -0.082          -0.996       4.880e-01         -0.2863
 465       1.322e+00      -1.695e+00      -4.758e-02          -0.128          -0.128          -0.983       3.751e-01         -0.3084
 466       1.055e+00      -1.695e+00       5.258e-03          -0.288          -0.206          -0.935       2.461e-01         -0.2556
 467       9.182e-01      -1.695e+00       6.725e-02          -0.615          -0.361          -0.701       1.115e-01          0.0243
 468       9.182e-01      -1.695e+00       1.592e-01          -0.801          -0.391           0.454       1.727e-01          0.7075
 469       1.055e+00      -1.695e+00       2.803e-01          -0.492          -0.211           0.845       2.727e-01         -0.0482
 470       1.322e+00      -1.694e+00       3.893e-01          -0.287          -0.103           0.952       3.873e-01         -0.4043
 471       1.702e+00      -1.694e+00       4.733e-01          -0.157          -0.039           0.987       4.923e-01         -0.5285
 472       2.173e+00      -1.694e+00       5.220e-01          -0.056           0.009           0.998       5.756e-01         -0.5599
 473       2.709e+00      -1.694e+00       5.295e-01           0.024           0.044           0.999       6.308e-01         -0.5237
 474       3.278e+00      -1.694e+00       4.980e-01           0.085           0.068           0.994       6.528e-01         -0.4471
 475       3.846e+00      -1.694e+00       4.365e-01           0.130           0.085           0.988       6.378e-01         -0.3561
 476       4.382e+00      -1.695e+00       3.553e-01           0.170           0.098           0.981       5.861e-01         -0.2515
 477       4.854e+00      -1.695e+00       2.678e-01           0.195           0.105           0.975       4.982e-01         -0.1419
 478       5.234e+00      -1.695e+00       1.901e-01           0.205           0.108           0.973       3.791e-01         -0.0420
 479       5.500e+00      -1.695e+00       1.339e-01           0.206           0.108           0.972       2.367e-01          0.0586
 480       5.637e+00      -1.695e+00       1.050e-01           0.202           0.107           0.974       8.038e-02          0.1203
Strip 19
 481       5.348e+00      -5.663e-01       3.795e-02          -0.141          -0.093          -0.986       8.498e-02          0.2150
 482       5.202e+00      -5.663e-01       5.465e-02          -0.104          -0.083          -0.991       2.486e-01          0.2339
 483       4.919e+00      -5.663e-01       7.551e-02          -0.054          -0.070          -0.996       3.963e-01          0.2526
 484       4.516e+00      -5.663e-01       8.485e-02           0.000          -0.055          -0.999       5.209e-01          0.2356
 485       4.014e+00      -5.663e-01       6.984e-02           0.055          -0.038          -0.998       6.167e-01          0.1895
 486       3.445e+00      -5.663e-01       2.565e-02           0.098          -0.023          -0.995       6.782e-01          0.1131
 487       2.840e+00      -5.664e-01      -3.980e-02           0.117          -0.016          -0.993       6.999e-01          0.0043
 488       2.236e+00      -5.664e-01      -1.055e-01           0.099          -0.023          -0.995       6.784e-01         -0.1215
 489       1.666e+00      -5.665e-01      -1.468e-01           0.043          -0.048          -0.998       6.168e-01         -0.2209
 490       1.165e+00      -5.665e-01      -1.515e-01          -0.030          -0.082          -0.996       5.223e-01         -0.2688
 491       7.609e-01      -5.665e-01      -1.218e-01          -0.128          -0.128          -0.983       4.015e-01         -0.2755
 492       4.779e-01      -5.664e-01      -6.566e-02          -0.288          -0.206          -0.935       2.635e-01         -0.2241
 493       3.321e-01      -5.664e-01       2.415e-04          -0.615          -0.361          -0.701       1.194e-01          0.0129
 494       3.321e-01      -5.663e-01       9.800e-02          -0.801          -0.391           0.453       1.848e-01          0.7303
 495       4.779e-01      -5.662e-01       2.267e-01          -0.492          -0.212           0.845       2.917e-01          0.0358
 496       7.609e-01      -5.661e-01       3.427e-01          -0.288          -0.103           0.952       4.145e-01         -0.3142
 497       1.165e+00      -5.660e-01       4.319e-01          -0.157          -0.039           0.987       5.269e-01         -0.4581
 498       1.666e+00      -5.660e-01       4.836e-01          -0.056           0.009           0.998       6.160e-01         -0.5172
 499       2.236e+00      -5.660e-01       4.916e-01           0.024           0.044           0.999       6.752e-01         -0.5079
 500       2.840e+00      -5.660e-01       4.582e-01           0.085           0.068           0.994       6.987e-01         -0.4514
 501       3.445e+00      -5.661e-01       3.928e-01           0.130           0.085           0.988       6.827e-01         -0.3714
 502       4.014e+00      -5.661e-01       3.065e-01           0.170           0.098           0.981       6.273e-01         -0.2696
 503       4.516e+00      -5.662e-01       2.134e-01           0.195           0.105           0.975       5.333e-01         -0.1574
 504       4.919e+00      -5.663e-01       1.308e-01           0.205           0.108           0.973       4.057e-01         -0.0528
 505       5.202e+00      -5.663e-01       7.105e-02           0.206           0.108           0.972       2.534e-01          0.0522
 506       5.348e+00      -5.663e-01       4.032e-02           0.202           0.107           0.974       8.604e-02          0.1163
Strip 20
 507       5.348e+00       5.663e-01       3.795e-02          -0.141           0.093          -0.986       8.498e-02          0.2150
 508       5.202e+00       5.663e-01       5.465e-02          -0.104           0.083          -0.991       2.486e-01          0.2339
 509       4.919e+00       5.663e-01       7.551e-02          -0.054           0.070          -0.996       3.963e-01          0.2526
 510       4.516e+00       5.663e-01       8.485e-02           0.000           0.055          -0.999       5.209e-01          0.2356
 511       4.014e+00       5.663e-01       6.984e-02           0.055           0.038          -0.998       6.167e-01          0.1895
 512       3.445e+00       5.663e-01       2.565e-02           0.098           0.023          -0.995       6.782e-01          0.1131
 513       2.840e+00       5.664e-01      -3.980e-02           0.117           0.016          -0.993       6.999e-01          0.0043
 514       2.236e+00       5.664e-01      -1.055e-01           0.099           0.023          -0.995       6.784e-01         -0.1215
 515       1.666e+00       5.665e-01      -1.468e-01           0.043           0.048          -0.998       6.168e-01         -0.2209
 516       1.165e+00       5.665e-01      -1.515e-01          -0.030           0.082          -0.996       5.223e-01         -0.2688
 517       7.609e-01       5.665e-01      -1.218e-01          -0.128           0.128          -0.983       4.015e-01         -0.2755
 518       4.779e-01       5.664e-01      -6.566e-02          -0.288           0.206          -0.935       2.635e-01         -0.2241
 519       3.321e-01       5.664e-01       2.415e-04          -0.615           0.361          -0.701       1.194e-01          0.0129
 520       3.321e-01       5.663e-01       9.800e-02          -0.801           0.391           0.453       1.848e-01          0.7303
 521       4.779e-01       5.662e-01       2.267e-01          -0.492           0.212           0.845       2.917e-01          0.0358
 522       7.609e-01       5.661e-01       3.427e-01          -0.288           0.103           0.952       4.145e-01         -0.3142
 523       1.165e+00       5.660e-01       4.319e-01          -0.157           0.039           0.987       5.269e-01         -0.4581
 524       1.666e+00       5.660e-01       4.836e-01          -0.056          -0.009           0.998       6.160e-01         -0.5172
 525       2.236e+00       5.660e-01       4.916e-01           0.024          -0.044           0.999       6.752e-01         -0.5079
 526       2.840e+00       5.660e-01       4.582e-01           0.085          -0.068           0.994       6.987e-01         -0.4514
 527       3.445e+00       5.661e-01       3.928e-01           0.130          -0.085           0.988       6.827e-01         -0.3714
 528       4.014e+00       5.661e-01       3.065e-01           0.170          -0.098           0.981       6.273e-01         -0.2696
 529       4.516e+00       5.662e-01       2.134e-01           0.195          -0.105           0.975       5.333e-01         -0.1574
 530       4.919e+00       5.663e-01       1.308e-01           0.205          -0.108           0.973       4.057e-01         -0.0528
 531       5.202e+00       5.663e-01       7.105e-02           0.206          -0.108           0.972       2.534e-01          0.0522
 532       5.348e+00       5.663e-01       4.032e-02           0.202          -0.107           0.974       8.604e-02          0.1163
Strip 21
 533       5.637e+00       1.695e+00       1.027e-01          -0.141           0.093          -0.986       7.940e-02          0.2169
 534       5.500e+00       1.695e+00       1.184e-01          -0.104           0.083          -0.991       2.323e-01          0.2365
 535       5.234e+00       1.695e+00       1.381e-01          -0.054           0.070          -0.996       3.703e-01          0.2574
 536       4.854e+00       1.695e+00       1.468e-01           0.000           0.055          -0.999       4.867e-01          0.2447
 537       4.382e+00       1.695e+00       1.327e-01           0.055           0.038          -0.998       5.762e-01          0.2037
 538       3.846e+00       1.695e+00       9.115e-02           0.098           0.023          -0.995       6.337e-01          0.1315
 539       3.278e+00       1.695e+00       2.958e-02           0.117           0.016          -0.993       6.540e-01          0.0239
 540       2.709e+00       1.695e+00      -3.221e-02           0.099           0.023          -0.995       6.339e-01         -0.1074
 541       2.173e+00       1.696e+00      -7.104e-02           0.043           0.048          -0.998       5.763e-01         -0.2204
 542       1.702e+00       1.696e+00      -7.550e-02          -0.030           0.082          -0.996       4.880e-01         -0.2863
 543       1.322e+00       1.695e+00      -4.758e-02          -0.128           0.128          -0.983       3.751e-01         -0.3084
 544       1.055e+00       1.695e+00       5.258e-03          -0.288           0.206          -0.935       2.461e-01         -0.2556
 545       9.182e-01       1.695e+00       6.725e-02          -0.615           0.361          -0.701       1.115e-01          0.0243
 546       9.182e-01       1.695e+00       1.592e-01          -0.801           0.391           0.454       1.727e-01          0.7075
 547       1.055e+00       1.695e+00       2.803e-01          -0.492           0.211           0.845       2.727e-01         -0.0482
 548       1.322e+00       1.694e+00       3.893e-01          -0.287           0.103           0.952       3.873e-01         -0.4043
 549       1.702e+00       1.694e+00       4.733e-01          -0.157           0.039           0.987       4.923e-01         -0.5285
 550       2.173e+00       1.694e+00       5.220e-01          -0.056          -0.009           0.998       5.756e-01         -0.5599
 551       2.709e+00       1.694e+00       5.295e-01           0.024          -0.044           0.999       6.308e-01         -0.5237
 552       3.278e+00       1.694e+00       4.980e-01           0.085          -0.068           0.994       6.528e-01         -0.4471
 553       3.846e+00       1.694e+00       4.365e-01           0.130          -0.085           0.988       6.378e-01         -0.3561
 554       4.382e+00       1.695e+00       3.553e-01           0.170          -0.098           0.981       5.861e-01         -0.2515
 555       4.854e+00       1.695e+00       2.678e-01           0.195          -0.105           0.975       4.982e-01         -0.1419
 556       5.234e+00       1.695e+00       1.901e-01           0.205          -0.108           0.973       3.791e-01         -0.0420
 557       5.500e+00       1.695e+00       1.339e-01           0.206          -0.108           0.972       2.367e-01          0.0586
 558       5.637e+00       1.695e+00       1.050e-01           0.202          -0.107           0.974       8.038e-02          0.1203
Strip 22
 559       5.923e+00       2.812e+00       1.668e-01          -0.141           0.093          -0.986       7.342e-02          0.2191
 560       5.794e+00       2.812e+00       1.816e-01          -0.104           0.083          -0.991       2.148e-01          0.2388
 561       5.545e+00       2.812e+00       2.000e-01          -0.054           0.070          -0.996       3.424e-01          0.2602
 562       5.189e+00       2.812e+00       2.082e-01           0.000           0.055          -0.999       4.501e-01          0.2485
 563       4.746e+00       2.812e+00       1.950e-01           0.055           0.038          -0.998       5.329e-01          0.2088
 564       4.244e+00       2.812e+00       1.560e-01           0.098           0.023          -0.995       5.861e-01          0.1382
 565       3.711e+00       2.813e+00       9.826e-02           0.117           0.016          -0.993       6.049e-01          0.0318
 566       3.177e+00       2.813e+00       4.032e-02           0.099           0.023          -0.995       5.863e-01         -0.0991
 567       2.675e+00       2.813e+00       3.916e-03           0.043           0.048          -0.998       5.330e-01         -0.2127
 568       2.233e+00       2.813e+00      -2.671e-04          -0.030           0.082          -0.996       4.513e-01         -0.2792
[...]
 852       7.160e+00       1.231e+01       6.570e-01           0.098           0.023          -0.995       1.146e-01         -0.0747
 853       6.942e+00       1.231e+01       6.413e-01           0.043           0.048          -0.998       1.041e-01         -0.1745
 854       6.750e+00       1.231e+01       6.394e-01          -0.030           0.082          -0.996       8.800e-02         -0.2217
 855       6.595e+00       1.231e+01       6.508e-01          -0.128           0.128          -0.983       6.751e-02         -0.2096
 856       6.486e+00       1.231e+01       6.723e-01          -0.290           0.207          -0.935       4.417e-02         -0.0862
 857       6.430e+00       1.231e+01       6.975e-01          -0.621           0.364          -0.695       1.994e-02          0.2804
 858       6.430e+00       1.231e+01       7.349e-01          -0.795           0.387           0.467       3.139e-02          0.5739
 859       6.486e+00       1.231e+01       7.841e-01          -0.487           0.209           0.848       4.960e-02         -0.2667
 860       6.595e+00       1.231e+01       8.285e-01          -0.286           0.103           0.953       7.026e-02         -0.5682
 861       6.750e+00       1.231e+01       8.626e-01          -0.157           0.038           0.987       8.909e-02         -0.6455
 862       6.942e+00       1.230e+01       8.825e-01          -0.056          -0.009           0.998       1.040e-01         -0.6389
 863       7.160e+00       1.230e+01       8.855e-01           0.024          -0.044           0.999       1.138e-01         -0.5702
 864       7.392e+00       1.231e+01       8.727e-01           0.085          -0.068           0.994       1.176e-01         -0.4682
 865       7.624e+00       1.231e+01       8.477e-01           0.130          -0.085           0.988       1.149e-01         -0.3606
 866       7.843e+00       1.231e+01       8.147e-01           0.170          -0.098           0.980       1.055e-01         -0.2468
 867       8.035e+00       1.231e+01       7.791e-01           0.195          -0.106           0.975       8.969e-02         -0.1334
 868       8.190e+00       1.231e+01       7.475e-01           0.205          -0.108           0.973       6.825e-02         -0.0324
 869       8.298e+00       1.231e+01       7.246e-01           0.207          -0.109           0.972       4.262e-02          0.0684
 870       8.354e+00       1.231e+01       7.128e-01           0.202          -0.107           0.973       1.447e-02          0.1299
Strip 34
 871       8.471e+00       1.277e+01       7.380e-01          -0.141           0.093          -0.986       1.110e-02          0.2200
 872       8.418e+00       1.277e+01       7.440e-01          -0.104           0.083          -0.991       3.249e-02          0.2378
 873       8.316e+00       1.277e+01       7.515e-01          -0.054           0.070          -0.996       5.182e-02          0.2568
 874       8.171e+00       1.277e+01       7.549e-01           0.000           0.055          -0.999       6.816e-02          0.2444
 875       7.991e+00       1.277e+01       7.495e-01           0.055           0.038          -0.998       8.075e-02          0.2063
 876       7.786e+00       1.277e+01       7.336e-01           0.098           0.023          -0.995       8.888e-02          0.1395
 877       7.569e+00       1.277e+01       7.101e-01           0.117           0.016          -0.993       9.177e-02          0.0398
 878       7.351e+00       1.277e+01       6.866e-01           0.098           0.023          -0.995       8.893e-02         -0.0815
 879       7.146e+00       1.277e+01       6.718e-01           0.043           0.048          -0.998       8.077e-02         -0.1824
 880       6.966e+00       1.277e+01       6.701e-01          -0.030           0.082          -0.996       6.829e-02         -0.2306
 881       6.821e+00       1.277e+01       6.807e-01          -0.128           0.128          -0.983       5.238e-02         -0.2201
 882       6.719e+00       1.277e+01       7.009e-01          -0.290           0.207          -0.934       3.426e-02         -0.1003
 883       6.667e+00       1.277e+01       7.245e-01          -0.621           0.364          -0.694       1.546e-02          0.2648
 884       6.667e+00       1.277e+01       7.596e-01          -0.794           0.387           0.468       2.438e-02          0.5799
 885       6.719e+00       1.276e+01       8.057e-01          -0.487           0.209           0.848       3.853e-02         -0.2532
 886       6.821e+00       1.276e+01       8.473e-01          -0.286           0.102           0.953       5.456e-02         -0.5539
 887       6.966e+00       1.276e+01       8.793e-01          -0.157           0.038           0.987       6.917e-02         -0.6301
 888       7.146e+00       1.276e+01       8.979e-01          -0.056          -0.009           0.998       8.069e-02         -0.6216
 889       7.351e+00       1.276e+01       9.008e-01           0.024          -0.044           0.999       8.830e-02         -0.5510
 890       7.569e+00       1.276e+01       8.888e-01           0.085          -0.068           0.994       9.128e-02         -0.4486
 891       7.786e+00       1.276e+01       8.653e-01           0.130          -0.085           0.988       8.913e-02         -0.3423
 892       7.991e+00       1.276e+01       8.344e-01           0.170          -0.098           0.980       8.187e-02         -0.2317
 893       8.171e+00       1.276e+01       8.010e-01           0.195          -0.106           0.975       6.960e-02         -0.1225
 894       8.316e+00       1.277e+01       7.713e-01           0.205          -0.108           0.973       5.295e-02         -0.0255
 895       8.418e+00       1.277e+01       7.499e-01           0.207          -0.109           0.972       3.307e-02          0.0716
 896       8.471e+00       1.277e+01       7.389e-01           0.202          -0.107           0.973       1.123e-02          0.1311
Strip 35
 897       8.565e+00       1.313e+01       7.591e-01          -0.141           0.093          -0.986       8.245e-03          0.2133
 898       8.515e+00       1.313e+01       7.648e-01          -0.104           0.083          -0.991       2.413e-02          0.2290
 899       8.419e+00       1.313e+01       7.719e-01          -0.054           0.070          -0.996       3.849e-02          0.2454
 900       8.281e+00       1.313e+01       7.751e-01           0.000           0.055          -0.999       5.063e-02          0.2324
 901       8.111e+00       1.313e+01       7.700e-01           0.055           0.038          -0.998       5.999e-02          0.1954
 902       7.917e+00       1.313e+01       7.550e-01           0.098           0.023          -0.995       6.603e-02          0.1307
 903       7.711e+00       1.314e+01       7.328e-01           0.117           0.016          -0.993       6.818e-02          0.0328
 904       7.505e+00       1.314e+01       7.105e-01           0.098           0.023          -0.995       6.607e-02         -0.0884
 905       7.312e+00       1.314e+01       6.965e-01           0.043           0.048          -0.998       6.000e-02         -0.1915
 906       7.141e+00       1.314e+01       6.948e-01          -0.030           0.082          -0.996       5.073e-02         -0.2432
 907       7.004e+00       1.314e+01       7.049e-01          -0.128           0.128          -0.983       3.890e-02         -0.2364
 908       6.907e+00       1.314e+01       7.240e-01          -0.290           0.207          -0.934       2.544e-02         -0.1236
 909       6.858e+00       1.314e+01       7.463e-01          -0.622           0.364          -0.693       1.148e-02          0.2383
 910       6.858e+00       1.313e+01       7.795e-01          -0.794           0.387           0.470       1.813e-02          0.5870
 911       6.907e+00       1.313e+01       8.232e-01          -0.487           0.209           0.848       2.865e-02         -0.2344
 912       7.004e+00       1.313e+01       8.625e-01          -0.285           0.102           0.953       4.055e-02         -0.5323
 913       7.141e+00       1.313e+01       8.928e-01          -0.156           0.038           0.987       5.139e-02         -0.6042
 914       7.312e+00       1.313e+01       9.104e-01          -0.056          -0.009           0.998       5.994e-02         -0.5895
 915       7.505e+00       1.313e+01       9.131e-01           0.024          -0.044           0.999       6.559e-02         -0.5144
 916       7.711e+00       1.313e+01       9.018e-01           0.085          -0.068           0.994       6.780e-02         -0.4121
 917       7.917e+00       1.313e+01       8.796e-01           0.130          -0.085           0.988       6.620e-02         -0.3105
 918       8.111e+00       1.313e+01       8.503e-01           0.171          -0.098           0.980       6.080e-02         -0.2076
 919       8.281e+00       1.313e+01       8.187e-01           0.196          -0.106           0.975       5.169e-02         -0.1070
 920       8.419e+00       1.313e+01       7.907e-01           0.205          -0.108           0.973       3.933e-02         -0.0179
 921       8.515e+00       1.313e+01       7.704e-01           0.207          -0.109           0.972       2.456e-02          0.0727
 922       8.565e+00       1.313e+01       7.599e-01           0.202          -0.108           0.973       8.342e-03          0.1286
Strip 36
 923       8.636e+00       1.341e+01       7.751e-01          -0.141           0.093          -0.986       5.675e-03          0.1916
 924       8.588e+00       1.341e+01       7.805e-01          -0.104           0.083          -0.991       1.661e-02          0.2031
 925       8.496e+00       1.341e+01       7.873e-01          -0.054           0.070          -0.996       2.649e-02          0.2150
 926       8.365e+00       1.341e+01       7.903e-01           0.000           0.055          -0.999       3.485e-02          0.2023
 927       8.201e+00       1.341e+01       7.855e-01           0.055           0.038          -0.998       4.130e-02          0.1702
 928       8.016e+00       1.341e+01       7.711e-01           0.098           0.023          -0.995       4.546e-02          0.1136
 929       7.819e+00       1.341e+01       7.498e-01           0.117           0.016          -0.993       4.694e-02          0.0249
 930       7.622e+00       1.342e+01       7.285e-01           0.098           0.023          -0.995       4.549e-02         -0.0893
 931       7.436e+00       1.342e+01       7.151e-01           0.043           0.048          -0.998       4.131e-02         -0.1926
 932       7.273e+00       1.342e+01       7.136e-01          -0.030           0.082          -0.996       3.492e-02         -0.2527
 933       7.142e+00       1.342e+01       7.232e-01          -0.128           0.128          -0.983       2.677e-02         -0.2571
 934       7.049e+00       1.341e+01       7.415e-01          -0.290           0.207          -0.934       1.750e-02         -0.1582
 935       7.002e+00       1.341e+01       7.629e-01          -0.622           0.364          -0.693       7.894e-03          0.1994
 936       7.002e+00       1.341e+01       7.946e-01          -0.793           0.386           0.471       1.248e-02          0.5834
 937       7.049e+00       1.341e+01       8.364e-01          -0.486           0.208           0.849       1.973e-02         -0.2200
 938       7.142e+00       1.341e+01       8.741e-01          -0.285           0.102           0.953       2.793e-02         -0.5046
 939       7.273e+00       1.341e+01       9.030e-01          -0.156           0.038           0.987       3.539e-02         -0.5595
 940       7.436e+00       1.340e+01       9.198e-01          -0.056          -0.009           0.998       4.127e-02         -0.5292
 941       7.622e+00       1.340e+01       9.224e-01           0.024          -0.044           0.999       4.515e-02         -0.4495
 942       7.819e+00       1.341e+01       9.116e-01           0.085          -0.068           0.994       4.666e-02         -0.3541
 943       8.016e+00       1.341e+01       8.903e-01           0.130          -0.085           0.988       4.556e-02         -0.2660
 944       8.201e+00       1.341e+01       8.623e-01           0.171          -0.098           0.980       4.185e-02         -0.1794
 945       8.365e+00       1.341e+01       8.321e-01           0.196          -0.106           0.975       3.557e-02         -0.0947
 946       8.496e+00       1.341e+01       8.053e-01           0.205          -0.108           0.973       2.707e-02         -0.0195
 947       8.588e+00       1.341e+01       7.858e-01           0.207          -0.109           0.972       1.690e-02          0.0598
 948       8.636e+00       1.341e+01       7.759e-01           0.202          -0.108           0.973       5.741e-03          0.1098
Strip 37
 949       8.684e+00       1.360e+01       7.858e-01          -0.141           0.093          -0.986       3.318e-03          0.1058
 950       8.638e+00       1.360e+01       7.911e-01          -0.104           0.083          -0.991       9.711e-03          0.1103
 951       8.548e+00       1.360e+01       7.976e-01          -0.054           0.070          -0.996       1.549e-02          0.1220
 952       8.421e+00       1.360e+01       8.006e-01           0.000           0.055          -0.999       2.038e-02          0.1242
 953       8.262e+00       1.360e+01       7.958e-01           0.055           0.038          -0.998       2.415e-02          0.1131
 954       8.082e+00       1.360e+01       7.819e-01           0.098           0.023          -0.995       2.658e-02          0.0779
 955       7.891e+00       1.360e+01       7.613e-01           0.117           0.016          -0.993       2.745e-02          0.0109
 956       7.700e+00       1.360e+01       7.406e-01           0.098           0.023          -0.995       2.660e-02         -0.0813
 957       7.520e+00       1.360e+01       7.276e-01           0.043           0.048          -0.998       2.415e-02         -0.1694
 958       7.362e+00       1.360e+01       7.261e-01          -0.030           0.082          -0.996       2.041e-02         -0.2336
 959       7.234e+00       1.360e+01       7.355e-01          -0.128           0.128          -0.983       1.565e-02         -0.2667
 960       7.145e+00       1.360e+01       7.532e-01          -0.290           0.207          -0.934       1.023e-02         -0.2105
 961       7.099e+00       1.360e+01       7.739e-01          -0.623           0.364          -0.692       4.612e-03          0.1364
 962       7.099e+00       1.360e+01       8.047e-01          -0.793           0.386           0.472       7.302e-03          0.5151
 963       7.145e+00       1.360e+01       8.452e-01          -0.486           0.208           0.849       1.154e-02         -0.2401
 964       7.234e+00       1.359e+01       8.818e-01          -0.285           0.102           0.953       1.633e-02         -0.4643
 965       7.362e+00       1.359e+01       9.099e-01          -0.156           0.038           0.987       2.069e-02         -0.4734
 966       7.520e+00       1.359e+01       9.262e-01          -0.056          -0.009           0.998       2.413e-02         -0.4277
 967       7.700e+00       1.359e+01       9.287e-01           0.024          -0.044           0.999       2.640e-02         -0.3574
 968       7.891e+00       1.359e+01       9.181e-01           0.085          -0.068           0.994       2.728e-02         -0.2839
 969       8.082e+00       1.359e+01       8.976e-01           0.130          -0.085           0.988       2.663e-02         -0.2247
 970       8.262e+00       1.359e+01       8.704e-01           0.171          -0.098           0.980       2.446e-02         -0.1742
 971       8.421e+00       1.360e+01       8.411e-01           0.196          -0.106           0.975       2.079e-02         -0.1291
 972       8.548e+00       1.360e+01       8.150e-01           0.205          -0.108           0.973       1.582e-02         -0.0884
 973       8.638e+00       1.360e+01       7.962e-01           0.207          -0.109           0.972       9.882e-03         -0.0319
 974       8.684e+00       1.360e+01       7.865e-01           0.202          -0.108           0.973       3.356e-03          0.0083
Strip 38
 975       8.708e+00       1.369e+01       7.912e-01          -0.141           0.093          -0.986       1.091e-03         -0.0001
 976       8.662e+00       1.369e+01       7.963e-01          -0.104           0.083          -0.991       3.194e-03         -0.0166
 977       8.574e+00       1.369e+01       8.028e-01          -0.054           0.070          -0.996       5.094e-03         -0.0181
 978       8.449e+00       1.369e+01       8.057e-01           0.000           0.055          -0.999       6.702e-03          0.0030
 979       8.293e+00       1.369e+01       8.011e-01           0.055           0.038          -0.998       7.942e-03          0.0243
 980       8.115e+00       1.369e+01       7.874e-01           0.098           0.023          -0.995       8.742e-03          0.0215
 981       7.927e+00       1.369e+01       7.671e-01           0.117           0.016          -0.993       9.028e-03         -0.0128
 982       7.739e+00       1.370e+01       7.467e-01           0.098           0.023          -0.995       8.748e-03         -0.0715
 983       7.562e+00       1.370e+01       7.339e-01           0.043           0.048          -0.998       7.943e-03         -0.1306
 984       7.406e+00       1.370e+01       7.324e-01          -0.030           0.082          -0.996       6.714e-03         -0.1762
 985       7.281e+00       1.370e+01       7.416e-01          -0.129           0.128          -0.983       5.147e-03         -0.2135
 986       7.193e+00       1.369e+01       7.590e-01          -0.290           0.207          -0.934       3.363e-03         -0.2110
 987       7.147e+00       1.369e+01       7.795e-01          -0.623           0.365          -0.692       1.517e-03          0.1287
 988       7.147e+00       1.369e+01       8.098e-01          -0.793           0.386           0.472       2.402e-03          0.4227
 989       7.193e+00       1.369e+01       8.497e-01          -0.486           0.208           0.849       3.797e-03         -0.2489
 990       7.281e+00       1.369e+01       8.856e-01          -0.285           0.102           0.953       5.373e-03         -0.3795
 991       7.406e+00       1.369e+01       9.133e-01          -0.156           0.038           0.987       6.806e-03         -0.3635
 992       7.562e+00       1.368e+01       9.293e-01          -0.056          -0.009           0.998       7.936e-03         -0.3245
 993       7.739e+00       1.368e+01       9.318e-01           0.024          -0.044           0.999       8.681e-03         -0.2717
 994       7.927e+00       1.369e+01       9.215e-01           0.085          -0.068           0.994       8.972e-03         -0.2173
 995       8.115e+00       1.369e+01       9.012e-01           0.130          -0.085           0.988       8.760e-03         -0.1758
 996       8.293e+00       1.369e+01       8.744e-01           0.171          -0.098           0.980       8.045e-03         -0.1501
 997       8.449e+00       1.369e+01       8.456e-01           0.196          -0.106           0.975       6.839e-03         -0.1480
 998       8.574e+00       1.369e+01       8.200e-01           0.205          -0.108           0.973       5.203e-03         -0.1594
 999       8.662e+00       1.369e+01       8.014e-01           0.207          -0.109           0.972       3.250e-03         -0.1433
1000       8.708e+00       1.369e+01       7.919e-01           0.202          -0.108           0.973       1.104e-03         -0.1218










