xflr5 v6.61

Plane Name
T1-10.0 m/s-Panel-Inviscid
QInf  =   10.000000 m/s
Alpha =   10.000000
Beta  =    0.000°
Phi   =    0.000°
Ctrl  =    0.000
CL    =    1.171363
Cy    =   -0.000000
Cd    =    0.052662     ICd   =    0.052662     PCd   =    0.000000
Cl   = -1.0058e-14
Cm   =    -1.39394
ICn   =   -0.000000     PCn   =   -0.000000
XCP   =    4.390363     YCP   =    0.000000     ZCP   =    0.526465
XNP   =    0.000000
Bending = 17952.852933

Main Wing
  y-span        Chord      Ai         Cl        PCd          ICd        CmGeom    CmAirf@chord/4    XTrtop    XTrBot      XCP       BM
  -13.7155     1.5833    -7.625    0.385069    0.000000    0.051542   -2.174332    0.002277     0.0000    0.0000    0.2445    0.0000
  -13.6218     1.6082    -6.743    0.643633    0.000000    0.076087   -3.210506   -0.025597     0.0000    0.0000    0.2844    0.1684
  -13.4351     1.6581    -5.786    0.875124    0.000000    0.088649   -4.042056   -0.032642     0.0000    0.0000    0.2817    2.2094
  -13.1566     1.7323    -4.844    1.052066    0.000000    0.089118   -4.605877   -0.051090     0.0000    0.0000    0.2928   11.1690
  -12.7882     1.8306    -4.013    1.174376    0.000000    0.082331   -4.794795   -0.067670     0.0000    0.0000    0.3018   36.6844
  -12.3324     1.9521    -3.347    1.250838    0.000000    0.073069   -4.678656   -0.079507     0.0000    0.0000    0.3076   93.6535
  -11.7925     2.0962    -2.862    1.292835    0.000000    0.064550   -4.363229   -0.087056     0.0000    0.0000    0.3113   202.4585
  -11.1719     2.2617    -2.545    1.310555    0.000000    0.058135   -3.940579   -0.091606     0.0000    0.0000    0.3138   388.8935
  -10.4751     2.4475    -2.361    1.311593    0.000000    0.053950   -3.475942   -0.094278     0.0000    0.0000    0.3158   683.8627
   -9.7066     2.6525    -2.277    1.301063    0.000000    0.051590   -3.010436   -0.095817     0.0000    0.0000    0.3176   1122.8287
   -8.8719     2.8751    -2.264    1.282226    0.000000    0.050550   -2.567768   -0.096686     0.0000    0.0000    0.3194   1744.9540
   -7.9766     3.1139    -2.303    1.257071    0.000000    0.050376   -2.160259   -0.097158     0.0000    0.0000    0.3214   2591.8870
   -7.0268     3.3673    -2.375    1.226731    0.000000    0.050690   -1.793183   -0.097409     0.0000    0.0000    0.3236   3706.1734
   -6.0290     3.6334    -2.469    1.191752    0.000000    0.051168   -1.467620   -0.097590     0.0000    0.0000    0.3262   5129.3020
   -4.9900     3.9105    -2.572    1.152237    0.000000    0.051493   -1.182421   -0.097870     0.0000    0.0000    0.3293   6899.4349
   -3.9169     4.1967    -2.668    1.107920    0.000000    0.051282   -0.935449   -0.098556     0.0000    0.0000    0.3335   9048.8932
   -2.8170     4.4901    -2.732    1.058167    0.000000    0.050007   -0.724510   -0.100303     0.0000    0.0000    0.3395   11601.5022
   -1.6980     4.7885    -2.709    1.001544    0.000000    0.046583   -0.548286   -0.104650     0.0000    0.0000    0.3495   14569.9093
   -0.5673     5.0901    -2.451    0.929667    0.000000    0.037294   -0.408567   -0.116533     0.0000    0.0000    0.3704   17952.8529
    0.5673     5.0901    -2.451    0.929667    0.000000    0.037294   -0.408567   -0.116533     0.0000    0.0000    0.3704   17952.8529
    1.6980     4.7885    -2.709    1.001544    0.000000    0.046583   -0.548286   -0.104650     0.0000    0.0000    0.3495   14569.9093
    2.8170     4.4901    -2.732    1.058167    0.000000    0.050007   -0.724510   -0.100303     0.0000    0.0000    0.3395   11601.5022
    3.9169     4.1967    -2.668    1.107920    0.000000    0.051282   -0.935449   -0.098556     0.0000    0.0000    0.3335   9048.8932
    4.9900     3.9105    -2.572    1.152237    0.000000    0.051493   -1.182421   -0.097870     0.0000    0.0000    0.3293   6899.4349
    6.0290     3.6334    -2.469    1.191752    0.000000    0.051168   -1.467620   -0.097590     0.0000    0.0000    0.3262   5129.3020
    7.0268     3.3673    -2.375    1.226731    0.000000    0.050690   -1.793183   -0.097409     0.0000    0.0000    0.3236   3706.1734
    7.9766     3.1139    -2.303    1.257071    0.000000    0.050376   -2.160259   -0.097158     0.0000    0.0000    0.3214   2591.8870
    8.8719     2.8751    -2.264    1.282226    0.000000    0.050550   -2.567768   -0.096686     0.0000    0.0000    0.3194   1744.9540
    9.7066     2.6525    -2.277    1.301063    0.000000    0.051590   -3.010436   -0.095817     0.0000    0.0000    0.3176   1122.8287
   10.4751     2.4475    -2.361    1.311593    0.000000    0.053950   -3.475942   -0.094278     0.0000    0.0000    0.3158   683.8627
   11.1719     2.2617    -2.545    1.310555    0.000000    0.058135   -3.940579   -0.091606     0.0000    0.0000    0.3138   388.8935
   11.7925     2.0962    -2.862    1.292835    0.000000    0.064550   -4.363229   -0.087056     0.0000    0.0000    0.3113   202.4585
   12.3324     1.9521    -3.347    1.250838    0.000000    0.073069   -4.678656   -0.079507     0.0000    0.0000    0.3076   93.6535
   12.7882     1.8306    -4.013    1.174376    0.000000    0.082331   -4.794795   -0.067670     0.0000    0.0000    0.3018   36.6844
   13.1566     1.7323    -4.844    1.052066    0.000000    0.089118   -4.605877   -0.051090     0.0000    0.0000    0.2928   11.1690
   13.4351     1.6581    -5.786    0.875124    0.000000    0.088649   -4.042056   -0.032642     0.0000    0.0000    0.2817    2.2094
   13.6218     1.6082    -6.743    0.643633    0.000000    0.076087   -3.210506   -0.025597     0.0000    0.0000    0.2844    0.1684
   13.7155     1.5833    -7.625    0.385069    0.000000    0.051542   -2.174332    0.002277     0.0000    0.0000    0.2445    0.0000


Main Wing Cp Coefficients
 Panel     CtrlPt.x        CtrlPt.y        CtrlPt.z       Nx      Ny       Nz        Area       Cp
Main WingCp Coefficients
Strip 1
  13       8.708e+00      -1.369e+01       7.912e-01          -0.141          -0.093          -0.986       1.091e-03         -1.5067
  14       8.662e+00      -1.369e+01       7.963e-01          -0.104          -0.083          -0.991       3.194e-03         -1.5600
  15       8.574e+00      -1.369e+01       8.028e-01          -0.054          -0.070          -0.996       5.094e-03         -1.4789
  16       8.449e+00      -1.369e+01       8.057e-01           0.000          -0.055          -0.999       6.702e-03         -1.1932
  17       8.293e+00      -1.369e+01       8.011e-01           0.055          -0.038          -0.998       7.942e-03         -0.8353
  18       8.115e+00      -1.369e+01       7.874e-01           0.098          -0.023          -0.995       8.742e-03         -0.5331
  19       7.927e+00      -1.369e+01       7.671e-01           0.117          -0.016          -0.993       9.028e-03         -0.3398
  20       7.739e+00      -1.370e+01       7.467e-01           0.098          -0.023          -0.995       8.748e-03         -0.2309
  21       7.562e+00      -1.370e+01       7.339e-01           0.043          -0.048          -0.998       7.943e-03         -0.1556
  22       7.406e+00      -1.370e+01       7.324e-01          -0.030          -0.082          -0.996       6.714e-03         -0.0726
  23       7.281e+00      -1.370e+01       7.416e-01          -0.129          -0.128          -0.983       5.147e-03          0.0631
  24       7.193e+00      -1.369e+01       7.590e-01          -0.290          -0.207          -0.934       3.363e-03          0.3141
  25       7.147e+00      -1.369e+01       7.795e-01          -0.623          -0.365          -0.692       1.517e-03          0.3331
  26       7.147e+00      -1.369e+01       8.098e-01          -0.793          -0.386           0.472       2.402e-03         -1.5490
  27       7.193e+00      -1.369e+01       8.497e-01          -0.486          -0.208           0.849       3.797e-03         -1.6879
  28       7.281e+00      -1.369e+01       8.856e-01          -0.285          -0.102           0.953       5.373e-03         -1.2093
  29       7.406e+00      -1.369e+01       9.133e-01          -0.156          -0.038           0.987       6.806e-03         -0.9114
  30       7.562e+00      -1.368e+01       9.293e-01          -0.056           0.009           0.998       7.936e-03         -0.7398
  31       7.739e+00      -1.368e+01       9.318e-01           0.024           0.044           0.999       8.681e-03         -0.6334
  32       7.927e+00      -1.369e+01       9.215e-01           0.085           0.068           0.994       8.972e-03         -0.6049
  33       8.115e+00      -1.369e+01       9.012e-01           0.130           0.085           0.988       8.760e-03         -0.6902
  34       8.293e+00      -1.369e+01       8.744e-01           0.171           0.098           0.980       8.045e-03         -0.9111
  35       8.449e+00      -1.369e+01       8.456e-01           0.196           0.106           0.975       6.839e-03         -1.2577
  36       8.574e+00      -1.369e+01       8.200e-01           0.205           0.108           0.973       5.203e-03         -1.5866
  37       8.662e+00      -1.369e+01       8.014e-01           0.207           0.109           0.972       3.250e-03         -1.7320
  38       8.708e+00      -1.369e+01       7.919e-01           0.202           0.108           0.973       1.104e-03         -1.7691
Strip 2
  39       8.684e+00      -1.360e+01       7.858e-01          -0.141          -0.093          -0.986       3.318e-03         -0.6512
  40       8.638e+00      -1.360e+01       7.911e-01          -0.104          -0.083          -0.991       9.711e-03         -0.6632
  41       8.548e+00      -1.360e+01       7.976e-01          -0.054          -0.070          -0.996       1.549e-02         -0.6170
  42       8.421e+00      -1.360e+01       8.006e-01           0.000          -0.055          -0.999       2.038e-02         -0.5001
  43       8.262e+00      -1.360e+01       7.958e-01           0.055          -0.038          -0.998       2.415e-02         -0.3569
  44       8.082e+00      -1.360e+01       7.819e-01           0.098          -0.023          -0.995       2.658e-02         -0.2371
  45       7.891e+00      -1.360e+01       7.613e-01           0.117          -0.016          -0.993       2.745e-02         -0.1660
  46       7.700e+00      -1.360e+01       7.406e-01           0.098          -0.023          -0.995       2.660e-02         -0.1277
  47       7.520e+00      -1.360e+01       7.276e-01           0.043          -0.048          -0.998       2.415e-02         -0.0807
  48       7.362e+00      -1.360e+01       7.261e-01          -0.030          -0.082          -0.996       2.041e-02          0.0132
  49       7.234e+00      -1.360e+01       7.355e-01          -0.128          -0.128          -0.983       1.565e-02          0.2013
  50       7.145e+00      -1.360e+01       7.532e-01          -0.290          -0.207          -0.934       1.023e-02          0.4971
  51       7.099e+00      -1.360e+01       7.739e-01          -0.623          -0.364          -0.692       4.612e-03          0.2692
  52       7.099e+00      -1.360e+01       8.047e-01          -0.793          -0.386           0.472       7.302e-03         -2.1416
  53       7.145e+00      -1.360e+01       8.452e-01          -0.486          -0.208           0.849       1.154e-02         -2.1262
  54       7.234e+00      -1.359e+01       8.818e-01          -0.285          -0.102           0.953       1.633e-02         -1.5127
  55       7.362e+00      -1.359e+01       9.099e-01          -0.156          -0.038           0.987       2.069e-02         -1.1202
  56       7.520e+00      -1.359e+01       9.262e-01          -0.056           0.009           0.998       2.413e-02         -0.8752
  57       7.700e+00      -1.359e+01       9.287e-01           0.024           0.044           0.999       2.640e-02         -0.7059
  58       7.891e+00      -1.359e+01       9.181e-01           0.085           0.068           0.994       2.728e-02         -0.6090
  59       8.082e+00      -1.359e+01       8.976e-01           0.130           0.085           0.988       2.663e-02         -0.5977
  60       8.262e+00      -1.359e+01       8.704e-01           0.171           0.098           0.980       2.446e-02         -0.6529
  61       8.421e+00      -1.360e+01       8.411e-01           0.196           0.106           0.975       2.079e-02         -0.7473
  62       8.548e+00      -1.360e+01       8.150e-01           0.205           0.108           0.973       1.582e-02         -0.8221
  63       8.638e+00      -1.360e+01       7.962e-01           0.207           0.109           0.972       9.882e-03         -0.8171
  64       8.684e+00      -1.360e+01       7.865e-01           0.202           0.108           0.973       3.356e-03         -0.7938
Strip 3
  65       8.636e+00      -1.341e+01       7.751e-01          -0.141          -0.093          -0.986       5.675e-03          0.0260
  66       8.588e+00      -1.341e+01       7.805e-01          -0.104          -0.083          -0.991       1.661e-02          0.0316
  67       8.496e+00      -1.341e+01       7.873e-01          -0.054          -0.070          -0.996       2.649e-02          0.0423
  68       8.365e+00      -1.341e+01       7.903e-01           0.000          -0.055          -0.999       3.485e-02          0.0409
  69       8.201e+00      -1.341e+01       7.855e-01           0.055          -0.038          -0.998       4.130e-02          0.0370
  70       8.016e+00      -1.341e+01       7.711e-01           0.098          -0.023          -0.995       4.546e-02          0.0298
  71       7.819e+00      -1.341e+01       7.498e-01           0.117          -0.016          -0.993       4.694e-02          0.0164
  72       7.622e+00      -1.342e+01       7.285e-01           0.098          -0.023          -0.995       4.549e-02          0.0102
  73       7.436e+00      -1.342e+01       7.151e-01           0.043          -0.048          -0.998       4.131e-02          0.0509
  74       7.273e+00      -1.342e+01       7.136e-01          -0.030          -0.082          -0.996       3.492e-02          0.1754
  75       7.142e+00      -1.342e+01       7.232e-01          -0.128          -0.128          -0.983       2.677e-02          0.4054
  76       7.049e+00      -1.341e+01       7.415e-01          -0.290          -0.207          -0.934       1.750e-02          0.6750
  77       7.002e+00      -1.341e+01       7.629e-01          -0.622          -0.364          -0.693       7.894e-03          0.1865
  78       7.002e+00      -1.341e+01       7.946e-01          -0.793          -0.386           0.471       1.248e-02         -2.7153
  79       7.049e+00      -1.341e+01       8.364e-01          -0.486          -0.208           0.849       1.973e-02         -2.5433
  80       7.142e+00      -1.341e+01       8.741e-01          -0.285          -0.102           0.953       2.793e-02         -1.8309
  81       7.273e+00      -1.341e+01       9.030e-01          -0.156          -0.038           0.987       3.539e-02         -1.3646
  82       7.436e+00      -1.340e+01       9.198e-01          -0.056           0.009           0.998       4.127e-02         -1.0435
  83       7.622e+00      -1.340e+01       9.224e-01           0.024           0.044           0.999       4.515e-02         -0.7916
  84       7.819e+00      -1.341e+01       9.116e-01           0.085           0.068           0.994       4.666e-02         -0.5979
  85       8.016e+00      -1.341e+01       8.903e-01           0.130           0.085           0.988       4.556e-02         -0.4602
  86       8.201e+00      -1.341e+01       8.623e-01           0.171           0.098           0.980       4.185e-02         -0.3481
  87       8.365e+00      -1.341e+01       8.321e-01           0.196           0.106           0.975       3.557e-02         -0.2537
  88       8.496e+00      -1.341e+01       8.053e-01           0.205           0.108           0.973       2.707e-02         -0.1749
  89       8.588e+00      -1.341e+01       7.858e-01           0.207           0.109           0.972       1.690e-02         -0.0884
  90       8.636e+00      -1.341e+01       7.759e-01           0.202           0.108           0.973       5.741e-03         -0.0338
Strip 4
  91       8.565e+00      -1.313e+01       7.591e-01          -0.141          -0.093          -0.986       8.245e-03          0.1708
  92       8.515e+00      -1.313e+01       7.648e-01          -0.104          -0.083          -0.991       2.413e-02          0.1854
  93       8.419e+00      -1.313e+01       7.719e-01          -0.054          -0.070          -0.996       3.849e-02          0.2043
  94       8.281e+00      -1.313e+01       7.751e-01           0.000          -0.055          -0.999       5.063e-02          0.2000
  95       8.111e+00      -1.313e+01       7.700e-01           0.055          -0.038          -0.998       5.999e-02          0.1838
  96       7.917e+00      -1.313e+01       7.550e-01           0.098          -0.023          -0.995       6.603e-02          0.1598
  97       7.711e+00      -1.314e+01       7.328e-01           0.117          -0.016          -0.993       6.818e-02          0.1315
  98       7.505e+00      -1.314e+01       7.105e-01           0.098          -0.023          -0.995       6.607e-02          0.1191
  99       7.312e+00      -1.314e+01       6.965e-01           0.043          -0.048          -0.998       6.000e-02          0.1643
 100       7.141e+00      -1.314e+01       6.948e-01          -0.030          -0.082          -0.996       5.073e-02          0.2945
 101       7.004e+00      -1.314e+01       7.049e-01          -0.128          -0.128          -0.983       3.890e-02          0.5147
 102       6.907e+00      -1.314e+01       7.240e-01          -0.290          -0.207          -0.934       2.544e-02          0.7285
 103       6.858e+00      -1.314e+01       7.463e-01          -0.622          -0.364          -0.693       1.148e-02          0.0257
 104       6.858e+00      -1.313e+01       7.795e-01          -0.794          -0.387           0.470       1.813e-02         -3.2008
 105       6.907e+00      -1.313e+01       8.232e-01          -0.487          -0.209           0.848       2.865e-02         -2.8597
 106       7.004e+00      -1.313e+01       8.625e-01          -0.285          -0.102           0.953       4.055e-02         -2.0579
 107       7.141e+00      -1.313e+01       8.928e-01          -0.156          -0.038           0.987       5.139e-02         -1.5515
 108       7.312e+00      -1.313e+01       9.104e-01          -0.056           0.009           0.998       5.994e-02         -1.1973
 109       7.505e+00      -1.313e+01       9.131e-01           0.024           0.044           0.999       6.559e-02         -0.9032
 110       7.711e+00      -1.313e+01       9.018e-01           0.085           0.068           0.994       6.780e-02         -0.6601
 111       7.917e+00      -1.313e+01       8.796e-01           0.130           0.085           0.988       6.620e-02         -0.4716
 112       8.111e+00      -1.313e+01       8.503e-01           0.171           0.098           0.980       6.080e-02         -0.3121
 113       8.281e+00      -1.313e+01       8.187e-01           0.196           0.106           0.975       5.169e-02         -0.1763
 114       8.419e+00      -1.313e+01       7.907e-01           0.205           0.108           0.973       3.933e-02         -0.0642
 115       8.515e+00      -1.313e+01       7.704e-01           0.207           0.109           0.972       2.456e-02          0.0447
 116       8.565e+00      -1.313e+01       7.599e-01           0.202           0.108           0.973       8.342e-03          0.1097
Strip 5
 117       8.471e+00      -1.277e+01       7.380e-01          -0.141          -0.093          -0.986       1.110e-02          0.2207
 118       8.418e+00      -1.277e+01       7.440e-01          -0.104          -0.083          -0.991       3.249e-02          0.2413
 119       8.316e+00      -1.277e+01       7.515e-01          -0.054          -0.070          -0.996       5.182e-02          0.2678
 120       8.171e+00      -1.277e+01       7.549e-01           0.000          -0.055          -0.999       6.816e-02          0.2674
 121       7.991e+00      -1.277e+01       7.495e-01           0.055          -0.038          -0.998       8.075e-02          0.2525
 122       7.786e+00      -1.277e+01       7.336e-01           0.098          -0.023          -0.995       8.888e-02          0.2284
 123       7.569e+00      -1.277e+01       7.101e-01           0.117          -0.016          -0.993       9.177e-02          0.2006
 124       7.351e+00      -1.277e+01       6.866e-01           0.098          -0.023          -0.995       8.893e-02          0.1901
 125       7.146e+00      -1.277e+01       6.718e-01           0.043          -0.048          -0.998       8.077e-02          0.2360
 126       6.966e+00      -1.277e+01       6.701e-01          -0.030          -0.082          -0.996       6.829e-02          0.3624
 127       6.821e+00      -1.277e+01       6.807e-01          -0.128          -0.128          -0.983       5.238e-02          0.5708
 128       6.719e+00      -1.277e+01       7.009e-01          -0.290          -0.207          -0.934       3.426e-02          0.7445
 129       6.667e+00      -1.277e+01       7.245e-01          -0.621          -0.364          -0.694       1.546e-02         -0.1114
 130       6.667e+00      -1.277e+01       7.596e-01          -0.794          -0.387           0.468       2.438e-02         -3.5567
 131       6.719e+00      -1.276e+01       8.057e-01          -0.487          -0.209           0.848       3.853e-02         -3.0840
 132       6.821e+00      -1.276e+01       8.473e-01          -0.286          -0.102           0.953       5.456e-02         -2.2117
 133       6.966e+00      -1.276e+01       8.793e-01          -0.157          -0.038           0.987       6.917e-02         -1.6771
 134       7.146e+00      -1.276e+01       8.979e-01          -0.056           0.009           0.998       8.069e-02         -1.3069
 135       7.351e+00      -1.276e+01       9.008e-01           0.024           0.044           0.999       8.830e-02         -0.9953
 136       7.569e+00      -1.276e+01       8.888e-01           0.085           0.068           0.994       9.128e-02         -0.7306
 137       7.786e+00      -1.276e+01       8.653e-01           0.130           0.085           0.988       8.913e-02         -0.5179
 138       7.991e+00      -1.276e+01       8.344e-01           0.170           0.098           0.980       8.187e-02         -0.3340
 139       8.171e+00      -1.276e+01       8.010e-01           0.195           0.106           0.975       6.960e-02         -0.1761
 140       8.316e+00      -1.277e+01       7.713e-01           0.205           0.108           0.973       5.295e-02         -0.0462
 141       8.418e+00      -1.277e+01       7.499e-01           0.207           0.109           0.972       3.307e-02          0.0760
 142       8.471e+00      -1.277e+01       7.389e-01           0.202           0.107           0.973       1.123e-02          0.1479
Strip 6
 143       8.354e+00      -1.231e+01       7.119e-01          -0.141          -0.093          -0.986       1.431e-02          0.2424
 144       8.298e+00      -1.231e+01       7.183e-01          -0.104          -0.083          -0.991       4.187e-02          0.2668
 145       8.190e+00      -1.231e+01       7.263e-01          -0.054          -0.070          -0.996       6.677e-02          0.2988
 146       8.035e+00      -1.231e+01       7.299e-01           0.000          -0.055          -0.999       8.782e-02          0.3023
 147       7.843e+00      -1.231e+01       7.241e-01           0.055          -0.038          -0.998       1.040e-01          0.2900
 148       7.624e+00      -1.231e+01       7.072e-01           0.098          -0.023          -0.995       1.145e-01          0.2680
 149       7.392e+00      -1.231e+01       6.822e-01           0.117          -0.016          -0.993       1.182e-01          0.2420
 150       7.160e+00      -1.231e+01       6.570e-01           0.098          -0.023          -0.995       1.146e-01          0.2325
 151       6.942e+00      -1.231e+01       6.413e-01           0.043          -0.048          -0.998       1.041e-01          0.2775
 152       6.750e+00      -1.231e+01       6.394e-01          -0.030          -0.082          -0.996       8.800e-02          0.4001
 153       6.595e+00      -1.231e+01       6.508e-01          -0.128          -0.128          -0.983       6.751e-02          0.6008
 154       6.486e+00      -1.231e+01       6.723e-01          -0.290          -0.207          -0.935       4.417e-02          0.7496
 155       6.430e+00      -1.231e+01       6.975e-01          -0.621          -0.364          -0.695       1.994e-02         -0.1994
 156       6.430e+00      -1.231e+01       7.349e-01          -0.795          -0.387           0.467       3.139e-02         -3.7778
 157       6.486e+00      -1.231e+01       7.841e-01          -0.487          -0.209           0.848       4.960e-02         -3.2236
 158       6.595e+00      -1.231e+01       8.285e-01          -0.286          -0.103           0.953       7.026e-02         -2.3058
 159       6.750e+00      -1.231e+01       8.626e-01          -0.157          -0.038           0.987       8.909e-02         -1.7536
 160       6.942e+00      -1.230e+01       8.825e-01          -0.056           0.009           0.998       1.040e-01         -1.3744
 161       7.160e+00      -1.230e+01       8.855e-01           0.024           0.044           0.999       1.138e-01         -1.0549
 162       7.392e+00      -1.231e+01       8.727e-01           0.085           0.068           0.994       1.176e-01         -0.7804
 163       7.624e+00      -1.231e+01       8.477e-01           0.130           0.085           0.988       1.149e-01         -0.5560
 164       7.843e+00      -1.231e+01       8.147e-01           0.170           0.098           0.980       1.055e-01         -0.3591
 165       8.035e+00      -1.231e+01       7.791e-01           0.195           0.106           0.975       8.969e-02         -0.1886
 166       8.190e+00      -1.231e+01       7.475e-01           0.205           0.108           0.973       6.825e-02         -0.0483
 167       8.298e+00      -1.231e+01       7.246e-01           0.207           0.109           0.972       4.262e-02          0.0824
 168       8.354e+00      -1.231e+01       7.128e-01           0.202           0.107           0.973       1.447e-02          0.1589
Strip 7
 169       8.216e+00      -1.177e+01       6.810e-01          -0.141          -0.093          -0.986       1.791e-02          0.2532
 170       8.156e+00      -1.177e+01       6.879e-01          -0.104          -0.083          -0.991       5.241e-02          0.2801
 171       8.040e+00      -1.177e+01       6.964e-01          -0.054          -0.070          -0.996       8.357e-02          0.3156
 172       7.873e+00      -1.177e+01       7.003e-01           0.000          -0.055          -0.999       1.099e-01          0.3217
 173       7.667e+00      -1.177e+01       6.941e-01           0.055          -0.038          -0.998       1.302e-01          0.3113
 174       7.432e+00      -1.177e+01       6.759e-01           0.098          -0.023          -0.995       1.433e-01          0.2907
 175       7.183e+00      -1.177e+01       6.490e-01           0.117          -0.016          -0.993       1.479e-01          0.2655
 176       6.934e+00      -1.178e+01       6.220e-01           0.098          -0.023          -0.995       1.433e-01          0.2560
 177       6.700e+00      -1.178e+01       6.051e-01           0.043          -0.048          -0.998       1.302e-01          0.2998
 178       6.493e+00      -1.178e+01       6.031e-01          -0.030          -0.082          -0.996       1.101e-01          0.4196
 179       6.327e+00      -1.178e+01       6.153e-01          -0.128          -0.128          -0.983       8.451e-02          0.6158
 180       6.211e+00      -1.177e+01       6.384e-01          -0.289          -0.207          -0.935       5.531e-02          0.7523
 181       6.150e+00      -1.177e+01       6.655e-01          -0.620          -0.363          -0.695       2.499e-02         -0.2365
 182       6.150e+00      -1.177e+01       7.057e-01          -0.796          -0.388           0.466       3.925e-02         -3.8785
 183       6.211e+00      -1.177e+01       7.586e-01          -0.488          -0.209           0.847       6.202e-02         -3.2910
 184       6.327e+00      -1.177e+01       8.062e-01          -0.286          -0.103           0.953       8.787e-02         -2.3528
 185       6.493e+00      -1.177e+01       8.429e-01          -0.157          -0.038           0.987       1.115e-01         -1.7931
 186       6.700e+00      -1.177e+01       8.642e-01          -0.056           0.009           0.998       1.301e-01         -1.4105
 187       6.934e+00      -1.177e+01       8.674e-01           0.024           0.044           0.999       1.424e-01         -1.0879
 188       7.183e+00      -1.177e+01       8.537e-01           0.085           0.068           0.994       1.472e-01         -0.8092
 189       7.432e+00      -1.177e+01       8.268e-01           0.130           0.085           0.988       1.438e-01         -0.5794
 190       7.667e+00      -1.177e+01       7.914e-01           0.170           0.098           0.980       1.321e-01         -0.3760
 191       7.873e+00      -1.177e+01       7.531e-01           0.195           0.106           0.975       1.123e-01         -0.1989
 192       8.040e+00      -1.177e+01       7.192e-01           0.205           0.108           0.973       8.543e-02         -0.0529
 193       8.156e+00      -1.177e+01       6.946e-01           0.207           0.109           0.972       5.336e-02          0.0830
 194       8.216e+00      -1.177e+01       6.820e-01           0.202           0.107           0.973       1.812e-02          0.1623
Strip 8
 195       8.058e+00      -1.115e+01       6.454e-01          -0.141          -0.093          -0.986       2.194e-02          0.2591
 196       7.993e+00      -1.115e+01       6.529e-01          -0.104          -0.083          -0.991       6.419e-02          0.2875
 197       7.867e+00      -1.115e+01       6.621e-01          -0.054          -0.070          -0.996       1.024e-01          0.3250
 198       7.688e+00      -1.115e+01       6.663e-01           0.000          -0.055          -0.999       1.346e-01          0.3325
 199       7.465e+00      -1.115e+01       6.596e-01           0.055          -0.038          -0.998       1.594e-01          0.3231
 200       7.212e+00      -1.115e+01       6.400e-01           0.098          -0.023          -0.995       1.754e-01          0.3030
 201       6.943e+00      -1.115e+01       6.110e-01           0.117          -0.016          -0.993       1.811e-01          0.2778
 202       6.675e+00      -1.116e+01       5.818e-01           0.099          -0.023          -0.995       1.755e-01          0.2676
 203       6.422e+00      -1.116e+01       5.635e-01           0.043          -0.048          -0.998       1.595e-01          0.3099
 204       6.199e+00      -1.116e+01       5.614e-01          -0.030          -0.082          -0.996       1.349e-01          0.4276
 205       6.019e+00      -1.116e+01       5.746e-01          -0.128          -0.128          -0.983       1.035e-01          0.6212
 206       5.894e+00      -1.115e+01       5.995e-01          -0.289          -0.207          -0.935       6.779e-02          0.7555
 207       5.829e+00      -1.115e+01       6.287e-01          -0.619          -0.363          -0.696       3.064e-02         -0.2304
 208       5.829e+00      -1.115e+01       6.721e-01          -0.796          -0.388           0.464       4.804e-02         -3.8816
 209       5.894e+00      -1.115e+01       7.292e-01          -0.488          -0.210           0.847       7.589e-02         -3.3012
 210       6.019e+00      -1.115e+01       7.806e-01          -0.286          -0.103           0.953       1.076e-01         -2.3639
 211       6.199e+00      -1.115e+01       8.202e-01          -0.157          -0.038           0.987       1.365e-01         -1.8057
 212       6.422e+00      -1.115e+01       8.431e-01          -0.056           0.009           0.998       1.593e-01         -1.4243
 213       6.675e+00      -1.115e+01       8.467e-01           0.024           0.044           0.999       1.744e-01         -1.1021
 214       6.943e+00      -1.115e+01       8.318e-01           0.085           0.068           0.994       1.804e-01         -0.8227
 215       7.212e+00      -1.115e+01       8.028e-01           0.130           0.085           0.988       1.761e-01         -0.5909
 216       7.465e+00      -1.115e+01       7.646e-01           0.170           0.098           0.980       1.618e-01         -0.3848
 217       7.688e+00      -1.115e+01       7.233e-01           0.195           0.106           0.975       1.376e-01         -0.2047
 218       7.867e+00      -1.115e+01       6.866e-01           0.205           0.108           0.973       1.047e-01         -0.0558
 219       7.993e+00      -1.115e+01       6.601e-01           0.207           0.109           0.972       6.537e-02          0.0826
 220       8.058e+00      -1.115e+01       6.465e-01           0.202           0.107           0.973       2.220e-02          0.1635
Strip 9
 221       7.880e+00      -1.046e+01       6.055e-01          -0.141          -0.093          -0.986       2.641e-02          0.2624
 222       7.810e+00      -1.046e+01       6.135e-01          -0.104          -0.083          -0.991       7.728e-02          0.2916
 223       7.673e+00      -1.046e+01       6.236e-01          -0.054          -0.070          -0.996       1.232e-01          0.3302
 224       7.479e+00      -1.046e+01       6.280e-01           0.000          -0.055          -0.999       1.620e-01          0.3385
 225       7.238e+00      -1.046e+01       6.208e-01           0.055          -0.038          -0.998       1.919e-01          0.3294
 226       6.964e+00      -1.046e+01       5.996e-01           0.098          -0.023          -0.995       2.111e-01          0.3091
 227       6.674e+00      -1.046e+01       5.682e-01           0.117          -0.016          -0.993       2.180e-01          0.2833
 228       6.383e+00      -1.046e+01       5.367e-01           0.099          -0.023          -0.995       2.112e-01          0.2717
 229       6.109e+00      -1.046e+01       5.168e-01           0.043          -0.048          -0.998       1.919e-01          0.3122
 230       5.868e+00      -1.046e+01       5.146e-01          -0.030          -0.082          -0.996       1.624e-01          0.4278
 231       5.674e+00      -1.046e+01       5.288e-01          -0.128          -0.128          -0.983       1.247e-01          0.6201
 232       5.538e+00      -1.046e+01       5.558e-01          -0.289          -0.207          -0.935       8.165e-02          0.7595
 233       5.468e+00      -1.046e+01       5.874e-01          -0.619          -0.363          -0.697       3.691e-02         -0.1913
 234       5.468e+00      -1.046e+01       6.344e-01          -0.797          -0.389           0.463       5.777e-02         -3.8101
 235       5.538e+00      -1.046e+01       6.961e-01          -0.489          -0.210           0.847       9.126e-02         -3.2676
 236       5.674e+00      -1.045e+01       7.518e-01          -0.286          -0.103           0.953       1.294e-01         -2.3484
 237       5.868e+00      -1.045e+01       7.946e-01          -0.157          -0.038           0.987       1.642e-01         -1.7990
 238       6.109e+00      -1.045e+01       8.195e-01          -0.056           0.009           0.998       1.917e-01         -1.4226
 239       6.383e+00      -1.045e+01       8.233e-01           0.024           0.044           0.999       2.099e-01         -1.1035
 240       6.674e+00      -1.045e+01       8.073e-01           0.085           0.068           0.994       2.171e-01         -0.8257
 241       6.964e+00      -1.045e+01       7.759e-01           0.130           0.085           0.988       2.121e-01         -0.5943
 242       7.238e+00      -1.045e+01       7.345e-01           0.170           0.098           0.980       1.948e-01         -0.3877
 243       7.479e+00      -1.046e+01       6.898e-01           0.195           0.105           0.975       1.656e-01         -0.2068
 244       7.673e+00      -1.046e+01       6.501e-01           0.205           0.108           0.973       1.260e-01         -0.0570
 245       7.810e+00      -1.046e+01       6.214e-01           0.207           0.109           0.972       7.870e-02          0.0825
 246       7.880e+00      -1.046e+01       6.067e-01           0.202           0.107           0.973       2.672e-02          0.1640
Strip 10
 247       7.683e+00      -9.690e+00       5.615e-01          -0.141          -0.093          -0.986       3.131e-02          0.2643
 248       7.607e+00      -9.690e+00       5.702e-01          -0.104          -0.083          -0.991       9.164e-02          0.2939
 249       7.460e+00      -9.690e+00       5.811e-01          -0.054          -0.070          -0.996       1.461e-01          0.3330
 250       7.249e+00      -9.690e+00       5.859e-01           0.000          -0.055          -0.999       1.921e-01          0.3414
 251       6.988e+00      -9.690e+00       5.781e-01           0.055          -0.038          -0.998       2.275e-01          0.3322
 252       6.691e+00      -9.691e+00       5.551e-01           0.098          -0.023          -0.995       2.503e-01          0.3114
 253       6.376e+00      -9.691e+00       5.210e-01           0.117          -0.016          -0.993       2.584e-01          0.2844
 254       6.061e+00      -9.692e+00       4.869e-01           0.099          -0.023          -0.995       2.504e-01          0.2710
 255       5.764e+00      -9.693e+00       4.654e-01           0.043          -0.048          -0.998       2.276e-01          0.3092
 256       5.503e+00      -9.693e+00       4.629e-01          -0.030          -0.082          -0.996       1.925e-01          0.4226
 257       5.293e+00      -9.692e+00       4.784e-01          -0.128          -0.128          -0.983       1.478e-01          0.6142
 258       5.145e+00      -9.692e+00       5.076e-01          -0.289          -0.207          -0.935       9.686e-02          0.7639
 259       5.069e+00      -9.691e+00       5.419e-01          -0.618          -0.362          -0.697       4.381e-02         -0.1287
 260       5.069e+00      -9.690e+00       5.928e-01          -0.797          -0.389           0.461       6.845e-02         -3.6830
 261       5.145e+00      -9.688e+00       6.597e-01          -0.489          -0.210           0.846       1.081e-01         -3.2012
 262       5.293e+00      -9.687e+00       7.201e-01          -0.286          -0.103           0.953       1.533e-01         -2.3131
 263       5.503e+00      -9.686e+00       7.665e-01          -0.157          -0.038           0.987       1.946e-01         -1.7783
 264       5.764e+00      -9.685e+00       7.934e-01          -0.056           0.009           0.998       2.273e-01         -1.4100
 265       6.061e+00      -9.685e+00       7.976e-01           0.024           0.044           0.999       2.489e-01         -1.0961
 266       6.376e+00      -9.685e+00       7.802e-01           0.085           0.068           0.994       2.575e-01         -0.8217
 267       6.691e+00      -9.686e+00       7.462e-01           0.130           0.085           0.988       2.515e-01         -0.5923
 268       6.988e+00      -9.687e+00       7.013e-01           0.170           0.098           0.981       2.310e-01         -0.3868
 269       7.249e+00      -9.688e+00       6.528e-01           0.195           0.105           0.975       1.964e-01         -0.2063
 270       7.460e+00      -9.689e+00       6.098e-01           0.205           0.108           0.973       1.494e-01         -0.0567
 271       7.607e+00      -9.690e+00       5.787e-01           0.206           0.109           0.972       9.333e-02          0.0828
 272       7.683e+00      -9.690e+00       5.627e-01           0.202           0.107           0.973       3.169e-02          0.1643
Strip 11
 273       7.470e+00      -8.857e+00       5.137e-01          -0.141          -0.093          -0.986       3.664e-02          0.2655
 274       7.388e+00      -8.857e+00       5.231e-01          -0.104          -0.083          -0.991       1.072e-01          0.2951
 275       7.228e+00      -8.857e+00       5.349e-01          -0.054          -0.070          -0.996       1.709e-01          0.3342
 276       7.000e+00      -8.857e+00       5.402e-01           0.000          -0.055          -0.999       2.247e-01          0.3426
 277       6.717e+00      -8.857e+00       5.317e-01           0.055          -0.038          -0.998       2.661e-01          0.3330
 278       6.395e+00      -8.857e+00       5.068e-01           0.098          -0.023          -0.995       2.928e-01          0.3112
 279       6.053e+00      -8.858e+00       4.698e-01           0.117          -0.016          -0.993       3.022e-01          0.2826
 280       5.712e+00      -8.859e+00       4.328e-01           0.099          -0.023          -0.995       2.929e-01          0.2669
 281       5.390e+00      -8.859e+00       4.095e-01           0.043          -0.048          -0.998       2.662e-01          0.3025
 282       5.107e+00      -8.859e+00       4.068e-01          -0.030          -0.082          -0.996       2.252e-01          0.4134
 283       4.879e+00      -8.859e+00       4.235e-01          -0.128          -0.128          -0.983       1.730e-01          0.6046
 284       4.719e+00      -8.858e+00       4.552e-01          -0.289          -0.206          -0.935       1.134e-01          0.7678
 285       4.637e+00      -8.858e+00       4.924e-01          -0.618          -0.362          -0.698       5.129e-02         -0.0503
 286       4.637e+00      -8.856e+00       5.476e-01          -0.798          -0.389           0.460       8.002e-02         -3.5143
 287       4.719e+00      -8.855e+00       6.202e-01          -0.490          -0.210           0.846       1.264e-01         -3.1094
 288       4.879e+00      -8.854e+00       6.856e-01          -0.287          -0.103           0.952       1.793e-01         -2.2628
 289       5.107e+00      -8.853e+00       7.359e-01          -0.157          -0.038           0.987       2.276e-01         -1.7470
 290       5.390e+00      -8.852e+00       7.651e-01          -0.056           0.009           0.998       2.659e-01         -1.3895
 291       5.712e+00      -8.852e+00       7.696e-01           0.024           0.044           0.999       2.912e-01         -1.0825
 292       6.053e+00      -8.852e+00       7.508e-01           0.085           0.068           0.994       3.012e-01         -0.8128
 293       6.395e+00      -8.853e+00       7.139e-01           0.130           0.085           0.988       2.942e-01         -0.5866
 294       6.717e+00      -8.854e+00       6.652e-01           0.170           0.098           0.981       2.703e-01         -0.3831
 295       7.000e+00      -8.855e+00       6.127e-01           0.195           0.105           0.975       2.298e-01         -0.2042
 296       7.228e+00      -8.856e+00       5.661e-01           0.205           0.108           0.973       1.748e-01         -0.0555
 297       7.388e+00      -8.857e+00       5.324e-01           0.206           0.109           0.972       1.092e-01          0.0834
 298       7.470e+00      -8.857e+00       5.150e-01           0.202           0.107           0.973       3.708e-02          0.1646
Strip 12
 299       7.241e+00      -7.963e+00       4.624e-01          -0.141          -0.093          -0.986       4.232e-02          0.2661
 300       7.152e+00      -7.963e+00       4.726e-01          -0.104          -0.083          -0.991       1.238e-01          0.2956
 301       6.979e+00      -7.963e+00       4.854e-01          -0.054          -0.070          -0.996       1.974e-01          0.3345
 302       6.732e+00      -7.963e+00       4.911e-01           0.000          -0.055          -0.999       2.596e-01          0.3426
 303       6.425e+00      -7.963e+00       4.819e-01           0.055          -0.038          -0.998       3.074e-01          0.3323
 304       6.077e+00      -7.963e+00       4.549e-01           0.098          -0.023          -0.995       3.381e-01          0.3094
 305       5.707e+00      -7.964e+00       4.149e-01           0.117          -0.016          -0.993       3.490e-01          0.2788
 306       5.337e+00      -7.965e+00       3.747e-01           0.099          -0.023          -0.995       3.383e-01          0.2604
 307       4.989e+00      -7.965e+00       3.495e-01           0.043          -0.048          -0.998       3.074e-01          0.2928
 308       4.682e+00      -7.965e+00       3.466e-01          -0.030          -0.082          -0.996       2.602e-01          0.4009
 309       4.435e+00      -7.965e+00       3.647e-01          -0.128          -0.128          -0.983       1.999e-01          0.5917
 310       4.262e+00      -7.964e+00       3.991e-01          -0.289          -0.206          -0.935       1.310e-01          0.7706
 311       4.173e+00      -7.964e+00       4.394e-01          -0.617          -0.362          -0.699       5.929e-02          0.0387
 312       4.173e+00      -7.963e+00       4.991e-01          -0.798          -0.390           0.459       9.237e-02         -3.3136
 313       4.262e+00      -7.961e+00       5.778e-01          -0.490          -0.211           0.846       1.459e-01         -2.9974
 314       4.435e+00      -7.960e+00       6.486e-01          -0.287          -0.103           0.952       2.070e-01         -2.2005
 315       4.682e+00      -7.959e+00       7.032e-01          -0.157          -0.038           0.987       2.629e-01         -1.7077
 316       4.989e+00      -7.959e+00       7.348e-01          -0.056           0.009           0.998       3.071e-01         -1.3629
 317       5.337e+00      -7.959e+00       7.397e-01           0.024           0.044           0.999       3.364e-01         -1.0643
 318       5.707e+00      -7.959e+00       7.192e-01           0.085           0.068           0.994       3.480e-01         -0.8004
 319       6.077e+00      -7.960e+00       6.793e-01           0.130           0.085           0.988       3.399e-01         -0.5782
 320       6.425e+00      -7.961e+00       6.265e-01           0.170           0.098           0.981       3.123e-01         -0.3777
 321       6.732e+00      -7.961e+00       5.697e-01           0.195           0.105           0.975       2.655e-01         -0.2008
 322       6.979e+00      -7.962e+00       5.192e-01           0.205           0.108           0.973       2.020e-01         -0.0536
 323       7.152e+00      -7.963e+00       4.826e-01           0.206           0.109           0.972       1.262e-01          0.0841
 324       7.241e+00      -7.963e+00       4.638e-01           0.202           0.107           0.973       4.284e-02          0.1647
Strip 13
 325       6.999e+00      -7.015e+00       4.080e-01          -0.141          -0.093          -0.986       4.831e-02          0.2664
 326       6.902e+00      -7.015e+00       4.190e-01          -0.104          -0.083          -0.991       1.414e-01          0.2956
 327       6.715e+00      -7.015e+00       4.328e-01          -0.054          -0.070          -0.996       2.254e-01          0.3342
 328       6.448e+00      -7.015e+00       4.390e-01           0.000          -0.055          -0.999       2.963e-01          0.3419
 329       6.116e+00      -7.015e+00       4.291e-01           0.055          -0.038          -0.998       3.508e-01          0.3308
 330       5.739e+00      -7.015e+00       3.999e-01           0.098          -0.023          -0.995       3.859e-01          0.3064
 331       5.339e+00      -7.016e+00       3.566e-01           0.117          -0.016          -0.993       3.983e-01          0.2736
 332       4.939e+00      -7.016e+00       3.132e-01           0.099          -0.023          -0.995       3.861e-01          0.2520
 333       4.563e+00      -7.017e+00       2.859e-01           0.043          -0.048          -0.998       3.509e-01          0.2807
 334       4.231e+00      -7.017e+00       2.827e-01          -0.030          -0.082          -0.996       2.970e-01          0.3856
 335       3.964e+00      -7.017e+00       3.024e-01          -0.128          -0.128          -0.983       2.282e-01          0.5756
 336       3.777e+00      -7.016e+00       3.395e-01          -0.289          -0.206          -0.935       1.496e-01          0.7714
 337       3.680e+00      -7.015e+00       3.831e-01          -0.617          -0.362          -0.699       6.772e-02          0.1344
 338       3.680e+00      -7.015e+00       4.477e-01          -0.799          -0.390           0.458       1.054e-01         -3.0871
 339       3.777e+00      -7.013e+00       5.328e-01          -0.490          -0.211           0.846       1.664e-01         -2.8685
 340       3.964e+00      -7.012e+00       6.094e-01          -0.287          -0.103           0.952       2.362e-01         -2.1283
 341       4.231e+00      -7.011e+00       6.684e-01          -0.157          -0.038           0.987       3.000e-01         -1.6615
 342       4.563e+00      -7.011e+00       7.026e-01          -0.056           0.009           0.998       3.505e-01         -1.3313
 343       4.939e+00      -7.011e+00       7.079e-01           0.024           0.044           0.999       3.840e-01         -1.0424
 344       5.339e+00      -7.011e+00       6.858e-01           0.085           0.068           0.994       3.972e-01         -0.7853
 345       5.739e+00      -7.012e+00       6.426e-01           0.130           0.085           0.988       3.880e-01         -0.5679
 346       6.116e+00      -7.013e+00       5.855e-01           0.170           0.098           0.981       3.565e-01         -0.3709
 347       6.448e+00      -7.013e+00       5.240e-01           0.195           0.105           0.975       3.031e-01         -0.1966
 348       6.715e+00      -7.014e+00       4.694e-01           0.205           0.108           0.973       2.306e-01         -0.0514
 349       6.902e+00      -7.015e+00       4.299e-01           0.206           0.109           0.972       1.440e-01          0.0849
 350       6.999e+00      -7.015e+00       4.096e-01           0.202           0.107           0.973       4.891e-02          0.1647
Strip 14
 351       6.744e+00      -6.019e+00       3.508e-01          -0.141          -0.093          -0.986       5.452e-02          0.2665
 352       6.640e+00      -6.019e+00       3.627e-01          -0.104          -0.083          -0.991       1.595e-01          0.2954
 353       6.438e+00      -6.019e+00       3.776e-01          -0.054          -0.070          -0.996       2.543e-01          0.3335
 354       6.149e+00      -6.019e+00       3.843e-01           0.000          -0.055          -0.999       3.343e-01          0.3406
 355       5.791e+00      -6.019e+00       3.736e-01           0.055          -0.038          -0.998       3.959e-01          0.3286
 356       5.385e+00      -6.019e+00       3.421e-01           0.098          -0.023          -0.995       4.354e-01          0.3026
 357       4.953e+00      -6.020e+00       2.954e-01           0.117          -0.016          -0.993       4.494e-01          0.2671
 358       4.522e+00      -6.020e+00       2.485e-01           0.099          -0.023          -0.995       4.356e-01          0.2418
 359       4.115e+00      -6.020e+00       2.190e-01           0.043          -0.048          -0.998       3.959e-01          0.2664
 360       3.757e+00      -6.020e+00       2.157e-01          -0.030          -0.082          -0.996       3.352e-01          0.3674
 361       3.469e+00      -6.020e+00       2.368e-01          -0.128          -0.128          -0.983       2.575e-01          0.5562
 362       3.267e+00      -6.020e+00       2.769e-01          -0.288          -0.206          -0.935       1.689e-01          0.7695
 363       3.163e+00      -6.019e+00       3.239e-01          -0.616          -0.362          -0.700       7.647e-02          0.2343
 364       3.163e+00      -6.018e+00       3.937e-01          -0.799          -0.390           0.457       1.189e-01         -2.8375
 365       3.267e+00      -6.017e+00       4.855e-01          -0.491          -0.211           0.845       1.876e-01         -2.7237
 366       3.469e+00      -6.017e+00       5.682e-01          -0.287          -0.103           0.952       2.664e-01         -2.0463
 367       3.757e+00      -6.016e+00       6.318e-01          -0.157          -0.038           0.987       3.384e-01         -1.6091
 368       4.115e+00      -6.015e+00       6.688e-01          -0.056           0.009           0.998       3.955e-01         -1.2954
 369       4.522e+00      -6.015e+00       6.745e-01           0.024           0.044           0.999       4.333e-01         -1.0175
 370       4.953e+00      -6.016e+00       6.506e-01           0.085           0.068           0.994       4.483e-01         -0.7682
 371       5.385e+00      -6.016e+00       6.040e-01           0.130           0.085           0.988       4.379e-01         -0.5562
 372       5.791e+00      -6.017e+00       5.424e-01           0.170           0.098           0.981       4.024e-01         -0.3632
 373       6.149e+00      -6.018e+00       4.760e-01           0.195           0.105           0.975       3.421e-01         -0.1919
 374       6.438e+00      -6.018e+00       4.171e-01           0.205           0.108           0.973       2.603e-01         -0.0488
 375       6.640e+00      -6.019e+00       3.744e-01           0.206           0.108           0.972       1.625e-01          0.0857
 376       6.744e+00      -6.019e+00       3.525e-01           0.202           0.107           0.974       5.519e-02          0.1646
Strip 15
 377       6.478e+00      -4.982e+00       2.913e-01          -0.141          -0.093          -0.986       6.086e-02          0.2664
 378       6.366e+00      -4.982e+00       3.041e-01          -0.104          -0.083          -0.991       1.781e-01          0.2949
 379       6.149e+00      -4.981e+00       3.201e-01          -0.054          -0.070          -0.996       2.838e-01          0.3325
 380       5.839e+00      -4.981e+00       3.273e-01           0.000          -0.055          -0.999       3.731e-01          0.3389
 381       5.453e+00      -4.981e+00       3.158e-01           0.055          -0.038          -0.998       4.418e-01          0.3258
 382       5.016e+00      -4.982e+00       2.819e-01           0.098          -0.023          -0.995       4.859e-01          0.2980
 383       4.551e+00      -4.982e+00       2.316e-01           0.117          -0.016          -0.993       5.015e-01          0.2595
 384       4.087e+00      -4.983e+00       1.812e-01           0.099          -0.023          -0.995       4.861e-01          0.2300
 385       3.649e+00      -4.983e+00       1.495e-01           0.043          -0.048          -0.998       4.419e-01          0.2498
 386       3.264e+00      -4.983e+00       1.458e-01          -0.030          -0.082          -0.996       3.741e-01          0.3463
 387       2.954e+00      -4.983e+00       1.686e-01          -0.128          -0.128          -0.983       2.874e-01          0.5329
 388       2.737e+00      -4.982e+00       2.117e-01          -0.288          -0.206          -0.935       1.886e-01          0.7638
 389       2.625e+00      -4.982e+00       2.624e-01          -0.616          -0.361          -0.700       8.540e-02          0.3367
 390       2.625e+00      -4.981e+00       3.374e-01          -0.800          -0.391           0.456       1.326e-01         -2.5645
 391       2.737e+00      -4.980e+00       4.362e-01          -0.491          -0.211           0.845       2.093e-01         -2.5618
 392       2.954e+00      -4.980e+00       5.253e-01          -0.287          -0.103           0.952       2.972e-01         -1.9544
 393       3.264e+00      -4.979e+00       5.938e-01          -0.157          -0.039           0.987       3.776e-01         -1.5501
 394       3.649e+00      -4.979e+00       6.336e-01          -0.056           0.009           0.998       4.413e-01         -1.2553
 395       4.087e+00      -4.979e+00       6.397e-01           0.024           0.044           0.999       4.836e-01         -0.9899
 396       4.551e+00      -4.979e+00       6.140e-01           0.085           0.068           0.994       5.004e-01         -0.7494
 397       5.016e+00      -4.979e+00       5.638e-01           0.130           0.085           0.988       4.888e-01         -0.5435
 398       5.453e+00      -4.980e+00       4.975e-01           0.170           0.098           0.981       4.492e-01         -0.3550
 399       5.839e+00      -4.981e+00       4.261e-01           0.195           0.105           0.975       3.818e-01         -0.1870
 400       6.149e+00      -4.981e+00       3.626e-01           0.205           0.108           0.973       2.905e-01         -0.0463
 401       6.366e+00      -4.981e+00       3.167e-01           0.206           0.108           0.972       1.814e-01          0.0863
 402       6.478e+00      -4.982e+00       2.931e-01           0.202           0.107           0.974       6.161e-02          0.1641
Strip 16
 403       6.204e+00      -3.910e+00       2.298e-01          -0.141          -0.093          -0.986       6.720e-02          0.2660
 404       6.084e+00      -3.910e+00       2.436e-01          -0.104          -0.083          -0.991       1.966e-01          0.2941
 405       5.851e+00      -3.910e+00       2.608e-01          -0.054          -0.070          -0.996       3.134e-01          0.3312
 406       5.518e+00      -3.910e+00       2.685e-01           0.000          -0.055          -0.999       4.120e-01          0.3370
 407       5.104e+00      -3.910e+00       2.561e-01           0.055          -0.038          -0.998       4.878e-01          0.3228
 408       4.635e+00      -3.910e+00       2.197e-01           0.098          -0.023          -0.995       5.365e-01          0.2929
 409       4.136e+00      -3.911e+00       1.658e-01           0.117          -0.016          -0.993       5.537e-01          0.2509
 410       3.638e+00      -3.911e+00       1.116e-01           0.099          -0.023          -0.995       5.366e-01          0.2166
 411       3.168e+00      -3.911e+00       7.758e-02           0.043          -0.048          -0.998       4.878e-01          0.2308
 412       2.755e+00      -3.911e+00       7.367e-02          -0.030          -0.082          -0.996       4.130e-01          0.3217
 413       2.422e+00      -3.911e+00       9.814e-02          -0.128          -0.128          -0.983       3.174e-01          0.5050
 414       2.189e+00      -3.911e+00       1.444e-01          -0.288          -0.206          -0.935       2.082e-01          0.7528
 415       2.068e+00      -3.911e+00       1.988e-01          -0.616          -0.361          -0.700       9.433e-02          0.4407
 416       2.068e+00      -3.910e+00       2.793e-01          -0.800          -0.391           0.455       1.463e-01         -2.2639
 417       2.189e+00      -3.909e+00       3.854e-01          -0.491          -0.211           0.845       2.310e-01         -2.3789
 418       2.422e+00      -3.909e+00       4.810e-01          -0.287          -0.103           0.952       3.280e-01         -1.8497
 419       2.755e+00      -3.908e+00       5.545e-01          -0.157          -0.039           0.987       4.169e-01         -1.4835
 420       3.168e+00      -3.908e+00       5.972e-01          -0.056           0.009           0.998       4.872e-01         -1.2106
 421       3.638e+00      -3.908e+00       6.038e-01           0.024           0.044           0.999       5.340e-01         -0.9600
 422       4.136e+00      -3.908e+00       5.762e-01           0.085           0.068           0.994       5.525e-01         -0.7298
 423       4.635e+00      -3.909e+00       5.223e-01           0.130           0.085           0.988       5.398e-01         -0.5310
 424       5.104e+00      -3.909e+00       4.512e-01           0.170           0.098           0.981       4.960e-01         -0.3473
 425       5.518e+00      -3.909e+00       3.745e-01           0.195           0.105           0.975       4.216e-01         -0.1826
 426       5.851e+00      -3.910e+00       3.064e-01           0.205           0.108           0.973       3.208e-01         -0.0443
 427       6.084e+00      -3.910e+00       2.571e-01           0.206           0.108           0.972       2.003e-01          0.0864
 428       6.204e+00      -3.910e+00       2.318e-01           0.202           0.107           0.974       6.803e-02          0.1631
Strip 17
 429       5.923e+00      -2.812e+00       1.668e-01          -0.141          -0.093          -0.986       7.342e-02          0.2654
 430       5.794e+00      -2.812e+00       1.816e-01          -0.104          -0.083          -0.991       2.148e-01          0.2931
 431       5.545e+00      -2.812e+00       2.000e-01          -0.054          -0.070          -0.996       3.424e-01          0.3298
 432       5.189e+00      -2.812e+00       2.082e-01           0.000          -0.055          -0.999       4.501e-01          0.3350
 433       4.746e+00      -2.812e+00       1.950e-01           0.055          -0.038          -0.998       5.329e-01          0.3195
 434       4.244e+00      -2.812e+00       1.560e-01           0.098          -0.023          -0.995       5.861e-01          0.2872
 435       3.711e+00      -2.813e+00       9.826e-02           0.117          -0.016          -0.993       6.049e-01          0.2416
 436       3.177e+00      -2.813e+00       4.032e-02           0.099          -0.023          -0.995       5.863e-01          0.2018
 437       2.675e+00      -2.813e+00       3.916e-03           0.043          -0.048          -0.998       5.330e-01          0.2094
 438       2.233e+00      -2.813e+00      -2.671e-04          -0.030          -0.082          -0.996       4.513e-01          0.2933
 439       1.877e+00      -2.813e+00       2.591e-02          -0.128          -0.128          -0.983       3.468e-01          0.4713
 440       1.627e+00      -2.813e+00       7.545e-02          -0.288          -0.206          -0.935       2.276e-01          0.7346
 441       1.498e+00      -2.812e+00       1.336e-01          -0.615          -0.361          -0.701       1.031e-01          0.5464
 442       1.498e+00      -2.812e+00       2.198e-01          -0.800          -0.391           0.455       1.598e-01         -1.9236
 443       1.627e+00      -2.812e+00       3.333e-01          -0.491          -0.211           0.845       2.523e-01         -2.1647
 444       1.877e+00      -2.811e+00       4.356e-01          -0.287          -0.103           0.952       3.583e-01         -1.7260
 445       2.233e+00      -2.811e+00       5.142e-01          -0.157          -0.039           0.987       4.554e-01         -1.4056
 446       2.675e+00      -2.811e+00       5.599e-01          -0.056           0.009           0.998       5.323e-01         -1.1601
 447       3.177e+00      -2.811e+00       5.669e-01           0.024           0.044           0.999       5.834e-01         -0.9285
 448       3.711e+00      -2.811e+00       5.375e-01           0.085           0.068           0.994       6.037e-01         -0.7112
 449       4.244e+00      -2.811e+00       4.798e-01           0.130           0.085           0.988       5.898e-01         -0.5206
 450       4.746e+00      -2.811e+00       4.037e-01           0.170           0.098           0.981       5.419e-01         -0.3419
 451       5.189e+00      -2.812e+00       3.216e-01           0.195           0.105           0.975       4.607e-01         -0.1802
 452       5.545e+00      -2.812e+00       2.487e-01           0.205           0.108           0.973       3.505e-01         -0.0439
 453       5.794e+00      -2.812e+00       1.960e-01           0.206           0.108           0.972       2.189e-01          0.0854
 454       5.923e+00      -2.812e+00       1.689e-01           0.202           0.107           0.974       7.433e-02          0.1614
Strip 18
 455       5.637e+00      -1.695e+00       1.027e-01          -0.141          -0.093          -0.986       7.940e-02          0.2644
 456       5.500e+00      -1.695e+00       1.184e-01          -0.104          -0.083          -0.991       2.323e-01          0.2921
 457       5.234e+00      -1.695e+00       1.381e-01          -0.054          -0.070          -0.996       3.703e-01          0.3286
 458       4.854e+00      -1.695e+00       1.468e-01           0.000          -0.055          -0.999       4.867e-01          0.3329
 459       4.382e+00      -1.695e+00       1.327e-01           0.055          -0.038          -0.998       5.762e-01          0.3158
 460       3.846e+00      -1.695e+00       9.115e-02           0.098          -0.023          -0.995       6.337e-01          0.2810
 461       3.278e+00      -1.695e+00       2.958e-02           0.117          -0.016          -0.993       6.540e-01          0.2313
 462       2.709e+00      -1.695e+00      -3.221e-02           0.099          -0.023          -0.995       6.339e-01          0.1861
 463       2.173e+00      -1.696e+00      -7.104e-02           0.043          -0.048          -0.998       5.763e-01          0.1868
 464       1.702e+00      -1.696e+00      -7.550e-02          -0.030          -0.082          -0.996       4.880e-01          0.2622
 465       1.322e+00      -1.695e+00      -4.758e-02          -0.128          -0.128          -0.983       3.751e-01          0.4315
 466       1.055e+00      -1.695e+00       5.258e-03          -0.288          -0.206          -0.935       2.461e-01          0.7073
 467       9.182e-01      -1.695e+00       6.725e-02          -0.615          -0.361          -0.701       1.115e-01          0.6568
 468       9.182e-01      -1.695e+00       1.592e-01          -0.801          -0.391           0.454       1.727e-01         -1.5165
 469       1.055e+00      -1.695e+00       2.803e-01          -0.492          -0.211           0.845       2.727e-01         -1.8923
 470       1.322e+00      -1.694e+00       3.893e-01          -0.287          -0.103           0.952       3.873e-01         -1.5654
 471       1.702e+00      -1.694e+00       4.733e-01          -0.157          -0.039           0.987       4.923e-01         -1.3063
 472       2.173e+00      -1.694e+00       5.220e-01          -0.056           0.009           0.998       5.756e-01         -1.1008
 473       2.709e+00      -1.694e+00       5.295e-01           0.024           0.044           0.999       6.308e-01         -0.8974
 474       3.278e+00      -1.694e+00       4.980e-01           0.085           0.068           0.994       6.528e-01         -0.6987
 475       3.846e+00      -1.694e+00       4.365e-01           0.130           0.085           0.988       6.378e-01         -0.5184
 476       4.382e+00      -1.695e+00       3.553e-01           0.170           0.098           0.981       5.861e-01         -0.3443
 477       4.854e+00      -1.695e+00       2.678e-01           0.195           0.105           0.975       4.982e-01         -0.1838
 478       5.234e+00      -1.695e+00       1.901e-01           0.205           0.108           0.973       3.791e-01         -0.0473
 479       5.500e+00      -1.695e+00       1.339e-01           0.206           0.108           0.972       2.367e-01          0.0822
 480       5.637e+00      -1.695e+00       1.050e-01           0.202           0.107           0.974       8.038e-02          0.1584
Strip 19
 481       5.348e+00      -5.663e-01       3.795e-02          -0.141          -0.093          -0.986       8.498e-02          0.2645
 482       5.202e+00      -5.663e-01       5.465e-02          -0.104          -0.083          -0.991       2.486e-01          0.2926
 483       4.919e+00      -5.663e-01       7.551e-02          -0.054          -0.070          -0.996       3.963e-01          0.3284
 484       4.516e+00      -5.663e-01       8.485e-02           0.000          -0.055          -0.999       5.209e-01          0.3296
 485       4.014e+00      -5.663e-01       6.984e-02           0.055          -0.038          -0.998       6.167e-01          0.3085
 486       3.445e+00      -5.663e-01       2.565e-02           0.098          -0.023          -0.995       6.782e-01          0.2701
 487       2.840e+00      -5.664e-01      -3.980e-02           0.117          -0.016          -0.993       6.999e-01          0.2182
 488       2.236e+00      -5.664e-01      -1.055e-01           0.099          -0.023          -0.995       6.784e-01          0.1725
 489       1.666e+00      -5.665e-01      -1.468e-01           0.043          -0.048          -0.998       6.168e-01          0.1734
 490       1.165e+00      -5.665e-01      -1.515e-01          -0.030          -0.082          -0.996       5.223e-01          0.2442
 491       7.609e-01      -5.665e-01      -1.218e-01          -0.128          -0.128          -0.983       4.015e-01          0.4042
 492       4.779e-01      -5.664e-01      -6.566e-02          -0.288          -0.206          -0.935       2.635e-01          0.6736
 493       3.321e-01      -5.664e-01       2.415e-04          -0.615          -0.361          -0.701       1.194e-01          0.7547
 494       3.321e-01      -5.663e-01       9.800e-02          -0.801          -0.391           0.453       1.848e-01         -0.9509
 495       4.779e-01      -5.662e-01       2.267e-01          -0.492          -0.212           0.845       2.917e-01         -1.4479
 496       7.609e-01      -5.661e-01       3.427e-01          -0.288          -0.103           0.952       4.145e-01         -1.2811
 497       1.165e+00      -5.660e-01       4.319e-01          -0.157          -0.039           0.987       5.269e-01         -1.1510
 498       1.666e+00      -5.660e-01       4.836e-01          -0.056           0.009           0.998       6.160e-01         -1.0248
 499       2.236e+00      -5.660e-01       4.916e-01           0.024           0.044           0.999       6.752e-01         -0.8755
 500       2.840e+00      -5.660e-01       4.582e-01           0.085           0.068           0.994       6.987e-01         -0.7088
 501       3.445e+00      -5.661e-01       3.928e-01           0.130           0.085           0.988       6.827e-01         -0.5432
 502       4.014e+00      -5.661e-01       3.065e-01           0.170           0.098           0.981       6.273e-01         -0.3715
 503       4.516e+00      -5.662e-01       2.134e-01           0.195           0.105           0.975       5.333e-01         -0.2062
 504       4.919e+00      -5.663e-01       1.308e-01           0.205           0.108           0.973       4.057e-01         -0.0625
 505       5.202e+00      -5.663e-01       7.105e-02           0.206           0.108           0.972       2.534e-01          0.0737
 506       5.348e+00      -5.663e-01       4.032e-02           0.202           0.107           0.974       8.604e-02          0.1538
Strip 20
 507       5.348e+00       5.663e-01       3.795e-02          -0.141           0.093          -0.986       8.498e-02          0.2645
 508       5.202e+00       5.663e-01       5.465e-02          -0.104           0.083          -0.991       2.486e-01          0.2926
 509       4.919e+00       5.663e-01       7.551e-02          -0.054           0.070          -0.996       3.963e-01          0.3284
 510       4.516e+00       5.663e-01       8.485e-02           0.000           0.055          -0.999       5.209e-01          0.3296
 511       4.014e+00       5.663e-01       6.984e-02           0.055           0.038          -0.998       6.167e-01          0.3085
 512       3.445e+00       5.663e-01       2.565e-02           0.098           0.023          -0.995       6.782e-01          0.2701
 513       2.840e+00       5.664e-01      -3.980e-02           0.117           0.016          -0.993       6.999e-01          0.2182
 514       2.236e+00       5.664e-01      -1.055e-01           0.099           0.023          -0.995       6.784e-01          0.1725
 515       1.666e+00       5.665e-01      -1.468e-01           0.043           0.048          -0.998       6.168e-01          0.1734
 516       1.165e+00       5.665e-01      -1.515e-01          -0.030           0.082          -0.996       5.223e-01          0.2442
 517       7.609e-01       5.665e-01      -1.218e-01          -0.128           0.128          -0.983       4.015e-01          0.4042
 518       4.779e-01       5.664e-01      -6.566e-02          -0.288           0.206          -0.935       2.635e-01          0.6736
 519       3.321e-01       5.664e-01       2.415e-04          -0.615           0.361          -0.701       1.194e-01          0.7547
 520       3.321e-01       5.663e-01       9.800e-02          -0.801           0.391           0.453       1.848e-01         -0.9509
 521       4.779e-01       5.662e-01       2.267e-01          -0.492           0.212           0.845       2.917e-01         -1.4479
 522       7.609e-01       5.661e-01       3.427e-01          -0.288           0.103           0.952       4.145e-01         -1.2811
 523       1.165e+00       5.660e-01       4.319e-01          -0.157           0.039           0.987       5.269e-01         -1.1510
 524       1.666e+00       5.660e-01       4.836e-01          -0.056          -0.009           0.998       6.160e-01         -1.0248
 525       2.236e+00       5.660e-01       4.916e-01           0.024          -0.044           0.999       6.752e-01         -0.8755
 526       2.840e+00       5.660e-01       4.582e-01           0.085          -0.068           0.994       6.987e-01         -0.7088
 527       3.445e+00       5.661e-01       3.928e-01           0.130          -0.085           0.988       6.827e-01         -0.5432
 528       4.014e+00       5.661e-01       3.065e-01           0.170          -0.098           0.981       6.273e-01         -0.3715
 529       4.516e+00       5.662e-01       2.134e-01           0.195          -0.105           0.975       5.333e-01         -0.2062
 530       4.919e+00       5.663e-01       1.308e-01           0.205          -0.108           0.973       4.057e-01         -0.0625
 531       5.202e+00       5.663e-01       7.105e-02           0.206          -0.108           0.972       2.534e-01          0.0737
 532       5.348e+00       5.663e-01       4.032e-02           0.202          -0.107           0.974       8.604e-02          0.1538
Strip 21
 533       5.637e+00       1.695e+00       1.027e-01          -0.141           0.093          -0.986       7.940e-02          0.2644
 534       5.500e+00       1.695e+00       1.184e-01          -0.104           0.083          -0.991       2.323e-01          0.2921
 535       5.234e+00       1.695e+00       1.381e-01          -0.054           0.070          -0.996       3.703e-01          0.3286
 536       4.854e+00       1.695e+00       1.468e-01           0.000           0.055          -0.999       4.867e-01          0.3329
 537       4.382e+00       1.695e+00       1.327e-01           0.055           0.038          -0.998       5.762e-01          0.3158
 538       3.846e+00       1.695e+00       9.115e-02           0.098           0.023          -0.995       6.337e-01          0.2810
 539       3.278e+00       1.695e+00       2.958e-02           0.117           0.016          -0.993       6.540e-01          0.2313
 540       2.709e+00       1.695e+00      -3.221e-02           0.099           0.023          -0.995       6.339e-01          0.1861
 541       2.173e+00       1.696e+00      -7.104e-02           0.043           0.048          -0.998       5.763e-01          0.1868
 542       1.702e+00       1.696e+00      -7.550e-02          -0.030           0.082          -0.996       4.880e-01          0.2622
 543       1.322e+00       1.695e+00      -4.758e-02          -0.128           0.128          -0.983       3.751e-01          0.4315
 544       1.055e+00       1.695e+00       5.258e-03          -0.288           0.206          -0.935       2.461e-01          0.7073
 545       9.182e-01       1.695e+00       6.725e-02          -0.615           0.361          -0.701       1.115e-01          0.6568
 546       9.182e-01       1.695e+00       1.592e-01          -0.801           0.391           0.454       1.727e-01         -1.5165
 547       1.055e+00       1.695e+00       2.803e-01          -0.492           0.211           0.845       2.727e-01         -1.8923
 548       1.322e+00       1.694e+00       3.893e-01          -0.287           0.103           0.952       3.873e-01         -1.5654
 549       1.702e+00       1.694e+00       4.733e-01          -0.157           0.039           0.987       4.923e-01         -1.3063
 550       2.173e+00       1.694e+00       5.220e-01          -0.056          -0.009           0.998       5.756e-01         -1.1008
 551       2.709e+00       1.694e+00       5.295e-01           0.024          -0.044           0.999       6.308e-01         -0.8974
 552       3.278e+00       1.694e+00       4.980e-01           0.085          -0.068           0.994       6.528e-01         -0.6987
 553       3.846e+00       1.694e+00       4.365e-01           0.130          -0.085           0.988       6.378e-01         -0.5184
 554       4.382e+00       1.695e+00       3.553e-01           0.170          -0.098           0.981       5.861e-01         -0.3443
 555       4.854e+00       1.695e+00       2.678e-01           0.195          -0.105           0.975       4.982e-01         -0.1838
 556       5.234e+00       1.695e+00       1.901e-01           0.205          -0.108           0.973       3.791e-01         -0.0473
 557       5.500e+00       1.695e+00       1.339e-01           0.206          -0.108           0.972       2.367e-01          0.0822
 558       5.637e+00       1.695e+00       1.050e-01           0.202          -0.107           0.974       8.038e-02          0.1584
Strip 22
 559       5.923e+00       2.812e+00       1.668e-01          -0.141           0.093          -0.986       7.342e-02          0.2654
 560       5.794e+00       2.812e+00       1.816e-01          -0.104           0.083          -0.991       2.148e-01          0.2931
 561       5.545e+00       2.812e+00       2.000e-01          -0.054           0.070          -0.996       3.424e-01          0.3298
 562       5.189e+00       2.812e+00       2.082e-01           0.000           0.055          -0.999       4.501e-01          0.3350
 563       4.746e+00       2.812e+00       1.950e-01           0.055           0.038          -0.998       5.329e-01          0.3195
 564       4.244e+00       2.812e+00       1.560e-01           0.098           0.023          -0.995       5.861e-01          0.2872
 565       3.711e+00       2.813e+00       9.826e-02           0.117           0.016          -0.993       6.049e-01          0.2416
 566       3.177e+00       2.813e+00       4.032e-02           0.099           0.023          -0.995       5.863e-01          0.2018
 567       2.675e+00       2.813e+00       3.916e-03           0.043           0.048          -0.998       5.330e-01          0.2094
 568       2.233e+00       2.813e+00      -2.671e-04          -0.030           0.082          -0.996       4.513e-01          0.2933
[...]
 852       7.160e+00       1.231e+01       6.570e-01           0.098           0.023          -0.995       1.146e-01          0.2325
 853       6.942e+00       1.231e+01       6.413e-01           0.043           0.048          -0.998       1.041e-01          0.2775
 854       6.750e+00       1.231e+01       6.394e-01          -0.030           0.082          -0.996       8.800e-02          0.4001
 855       6.595e+00       1.231e+01       6.508e-01          -0.128           0.128          -0.983       6.751e-02          0.6008
 856       6.486e+00       1.231e+01       6.723e-01          -0.290           0.207          -0.935       4.417e-02          0.7496
 857       6.430e+00       1.231e+01       6.975e-01          -0.621           0.364          -0.695       1.994e-02         -0.1994
 858       6.430e+00       1.231e+01       7.349e-01          -0.795           0.387           0.467       3.139e-02         -3.7778
 859       6.486e+00       1.231e+01       7.841e-01          -0.487           0.209           0.848       4.960e-02         -3.2236
 860       6.595e+00       1.231e+01       8.285e-01          -0.286           0.103           0.953       7.026e-02         -2.3058
 861       6.750e+00       1.231e+01       8.626e-01          -0.157           0.038           0.987       8.909e-02         -1.7536
 862       6.942e+00       1.230e+01       8.825e-01          -0.056          -0.009           0.998       1.040e-01         -1.3744
 863       7.160e+00       1.230e+01       8.855e-01           0.024          -0.044           0.999       1.138e-01         -1.0549
 864       7.392e+00       1.231e+01       8.727e-01           0.085          -0.068           0.994       1.176e-01         -0.7804
 865       7.624e+00       1.231e+01       8.477e-01           0.130          -0.085           0.988       1.149e-01         -0.5560
 866       7.843e+00       1.231e+01       8.147e-01           0.170          -0.098           0.980       1.055e-01         -0.3591
 867       8.035e+00       1.231e+01       7.791e-01           0.195          -0.106           0.975       8.969e-02         -0.1886
 868       8.190e+00       1.231e+01       7.475e-01           0.205          -0.108           0.973       6.825e-02         -0.0483
 869       8.298e+00       1.231e+01       7.246e-01           0.207          -0.109           0.972       4.262e-02          0.0824
 870       8.354e+00       1.231e+01       7.128e-01           0.202          -0.107           0.973       1.447e-02          0.1589
Strip 34
 871       8.471e+00       1.277e+01       7.380e-01          -0.141           0.093          -0.986       1.110e-02          0.2207
 872       8.418e+00       1.277e+01       7.440e-01          -0.104           0.083          -0.991       3.249e-02          0.2413
 873       8.316e+00       1.277e+01       7.515e-01          -0.054           0.070          -0.996       5.182e-02          0.2678
 874       8.171e+00       1.277e+01       7.549e-01           0.000           0.055          -0.999       6.816e-02          0.2674
 875       7.991e+00       1.277e+01       7.495e-01           0.055           0.038          -0.998       8.075e-02          0.2525
 876       7.786e+00       1.277e+01       7.336e-01           0.098           0.023          -0.995       8.888e-02          0.2284
 877       7.569e+00       1.277e+01       7.101e-01           0.117           0.016          -0.993       9.177e-02          0.2006
 878       7.351e+00       1.277e+01       6.866e-01           0.098           0.023          -0.995       8.893e-02          0.1901
 879       7.146e+00       1.277e+01       6.718e-01           0.043           0.048          -0.998       8.077e-02          0.2360
 880       6.966e+00       1.277e+01       6.701e-01          -0.030           0.082          -0.996       6.829e-02          0.3624
 881       6.821e+00       1.277e+01       6.807e-01          -0.128           0.128          -0.983       5.238e-02          0.5708
 882       6.719e+00       1.277e+01       7.009e-01          -0.290           0.207          -0.934       3.426e-02          0.7445
 883       6.667e+00       1.277e+01       7.245e-01          -0.621           0.364          -0.694       1.546e-02         -0.1114
 884       6.667e+00       1.277e+01       7.596e-01          -0.794           0.387           0.468       2.438e-02         -3.5567
 885       6.719e+00       1.276e+01       8.057e-01          -0.487           0.209           0.848       3.853e-02         -3.0840
 886       6.821e+00       1.276e+01       8.473e-01          -0.286           0.102           0.953       5.456e-02         -2.2117
 887       6.966e+00       1.276e+01       8.793e-01          -0.157           0.038           0.987       6.917e-02         -1.6771
 888       7.146e+00       1.276e+01       8.979e-01          -0.056          -0.009           0.998       8.069e-02         -1.3069
 889       7.351e+00       1.276e+01       9.008e-01           0.024          -0.044           0.999       8.830e-02         -0.9953
 890       7.569e+00       1.276e+01       8.888e-01           0.085          -0.068           0.994       9.128e-02         -0.7306
 891       7.786e+00       1.276e+01       8.653e-01           0.130          -0.085           0.988       8.913e-02         -0.5179
 892       7.991e+00       1.276e+01       8.344e-01           0.170          -0.098           0.980       8.187e-02         -0.3340
 893       8.171e+00       1.276e+01       8.010e-01           0.195          -0.106           0.975       6.960e-02         -0.1761
 894       8.316e+00       1.277e+01       7.713e-01           0.205          -0.108           0.973       5.295e-02         -0.0462
 895       8.418e+00       1.277e+01       7.499e-01           0.207          -0.109           0.972       3.307e-02          0.0760
 896       8.471e+00       1.277e+01       7.389e-01           0.202          -0.107           0.973       1.123e-02          0.1479
Strip 35
 897       8.565e+00       1.313e+01       7.591e-01          -0.141           0.093          -0.986       8.245e-03          0.1708
 898       8.515e+00       1.313e+01       7.648e-01          -0.104           0.083          -0.991       2.413e-02          0.1854
 899       8.419e+00       1.313e+01       7.719e-01          -0.054           0.070          -0.996       3.849e-02          0.2043
 900       8.281e+00       1.313e+01       7.751e-01           0.000           0.055          -0.999       5.063e-02          0.2000
 901       8.111e+00       1.313e+01       7.700e-01           0.055           0.038          -0.998       5.999e-02          0.1838
 902       7.917e+00       1.313e+01       7.550e-01           0.098           0.023          -0.995       6.603e-02          0.1598
 903       7.711e+00       1.314e+01       7.328e-01           0.117           0.016          -0.993       6.818e-02          0.1315
 904       7.505e+00       1.314e+01       7.105e-01           0.098           0.023          -0.995       6.607e-02          0.1191
 905       7.312e+00       1.314e+01       6.965e-01           0.043           0.048          -0.998       6.000e-02          0.1643
 906       7.141e+00       1.314e+01       6.948e-01          -0.030           0.082          -0.996       5.073e-02          0.2945
 907       7.004e+00       1.314e+01       7.049e-01          -0.128           0.128          -0.983       3.890e-02          0.5147
 908       6.907e+00       1.314e+01       7.240e-01          -0.290           0.207          -0.934       2.544e-02          0.7285
 909       6.858e+00       1.314e+01       7.463e-01          -0.622           0.364          -0.693       1.148e-02          0.0257
 910       6.858e+00       1.313e+01       7.795e-01          -0.794           0.387           0.470       1.813e-02         -3.2008
 911       6.907e+00       1.313e+01       8.232e-01          -0.487           0.209           0.848       2.865e-02         -2.8597
 912       7.004e+00       1.313e+01       8.625e-01          -0.285           0.102           0.953       4.055e-02         -2.0579
 913       7.141e+00       1.313e+01       8.928e-01          -0.156           0.038           0.987       5.139e-02         -1.5515
 914       7.312e+00       1.313e+01       9.104e-01          -0.056          -0.009           0.998       5.994e-02         -1.1973
 915       7.505e+00       1.313e+01       9.131e-01           0.024          -0.044           0.999       6.559e-02         -0.9032
 916       7.711e+00       1.313e+01       9.018e-01           0.085          -0.068           0.994       6.780e-02         -0.6601
 917       7.917e+00       1.313e+01       8.796e-01           0.130          -0.085           0.988       6.620e-02         -0.4716
 918       8.111e+00       1.313e+01       8.503e-01           0.171          -0.098           0.980       6.080e-02         -0.3121
 919       8.281e+00       1.313e+01       8.187e-01           0.196          -0.106           0.975       5.169e-02         -0.1763
 920       8.419e+00       1.313e+01       7.907e-01           0.205          -0.108           0.973       3.933e-02         -0.0642
 921       8.515e+00       1.313e+01       7.704e-01           0.207          -0.109           0.972       2.456e-02          0.0447
 922       8.565e+00       1.313e+01       7.599e-01           0.202          -0.108           0.973       8.342e-03          0.1097
Strip 36
 923       8.636e+00       1.341e+01       7.751e-01          -0.141           0.093          -0.986       5.675e-03          0.0260
 924       8.588e+00       1.341e+01       7.805e-01          -0.104           0.083          -0.991       1.661e-02          0.0316
 925       8.496e+00       1.341e+01       7.873e-01          -0.054           0.070          -0.996       2.649e-02          0.0423
 926       8.365e+00       1.341e+01       7.903e-01           0.000           0.055          -0.999       3.485e-02          0.0409
 927       8.201e+00       1.341e+01       7.855e-01           0.055           0.038          -0.998       4.130e-02          0.0370
 928       8.016e+00       1.341e+01       7.711e-01           0.098           0.023          -0.995       4.546e-02          0.0298
 929       7.819e+00       1.341e+01       7.498e-01           0.117           0.016          -0.993       4.694e-02          0.0164
 930       7.622e+00       1.342e+01       7.285e-01           0.098           0.023          -0.995       4.549e-02          0.0102
 931       7.436e+00       1.342e+01       7.151e-01           0.043           0.048          -0.998       4.131e-02          0.0509
 932       7.273e+00       1.342e+01       7.136e-01          -0.030           0.082          -0.996       3.492e-02          0.1754
 933       7.142e+00       1.342e+01       7.232e-01          -0.128           0.128          -0.983       2.677e-02          0.4054
 934       7.049e+00       1.341e+01       7.415e-01          -0.290           0.207          -0.934       1.750e-02          0.6750
 935       7.002e+00       1.341e+01       7.629e-01          -0.622           0.364          -0.693       7.894e-03          0.1865
 936       7.002e+00       1.341e+01       7.946e-01          -0.793           0.386           0.471       1.248e-02         -2.7153
 937       7.049e+00       1.341e+01       8.364e-01          -0.486           0.208           0.849       1.973e-02         -2.5433
 938       7.142e+00       1.341e+01       8.741e-01          -0.285           0.102           0.953       2.793e-02         -1.8309
 939       7.273e+00       1.341e+01       9.030e-01          -0.156           0.038           0.987       3.539e-02         -1.3646
 940       7.436e+00       1.340e+01       9.198e-01          -0.056          -0.009           0.998       4.127e-02         -1.0435
 941       7.622e+00       1.340e+01       9.224e-01           0.024          -0.044           0.999       4.515e-02         -0.7916
 942       7.819e+00       1.341e+01       9.116e-01           0.085          -0.068           0.994       4.666e-02         -0.5979
 943       8.016e+00       1.341e+01       8.903e-01           0.130          -0.085           0.988       4.556e-02         -0.4602
 944       8.201e+00       1.341e+01       8.623e-01           0.171          -0.098           0.980       4.185e-02         -0.3481
 945       8.365e+00       1.341e+01       8.321e-01           0.196          -0.106           0.975       3.557e-02         -0.2537
 946       8.496e+00       1.341e+01       8.053e-01           0.205          -0.108           0.973       2.707e-02         -0.1749
 947       8.588e+00       1.341e+01       7.858e-01           0.207          -0.109           0.972       1.690e-02         -0.0884
 948       8.636e+00       1.341e+01       7.759e-01           0.202          -0.108           0.973       5.741e-03         -0.0338
Strip 37
 949       8.684e+00       1.360e+01       7.858e-01          -0.141           0.093          -0.986       3.318e-03         -0.6512
 950       8.638e+00       1.360e+01       7.911e-01          -0.104           0.083          -0.991       9.711e-03         -0.6632
 951       8.548e+00       1.360e+01       7.976e-01          -0.054           0.070          -0.996       1.549e-02         -0.6170
 952       8.421e+00       1.360e+01       8.006e-01           0.000           0.055          -0.999       2.038e-02         -0.5001
 953       8.262e+00       1.360e+01       7.958e-01           0.055           0.038          -0.998       2.415e-02         -0.3569
 954       8.082e+00       1.360e+01       7.819e-01           0.098           0.023          -0.995       2.658e-02         -0.2371
 955       7.891e+00       1.360e+01       7.613e-01           0.117           0.016          -0.993       2.745e-02         -0.1660
 956       7.700e+00       1.360e+01       7.406e-01           0.098           0.023          -0.995       2.660e-02         -0.1277
 957       7.520e+00       1.360e+01       7.276e-01           0.043           0.048          -0.998       2.415e-02         -0.0807
 958       7.362e+00       1.360e+01       7.261e-01          -0.030           0.082          -0.996       2.041e-02          0.0132
 959       7.234e+00       1.360e+01       7.355e-01          -0.128           0.128          -0.983       1.565e-02          0.2013
 960       7.145e+00       1.360e+01       7.532e-01          -0.290           0.207          -0.934       1.023e-02          0.4971
 961       7.099e+00       1.360e+01       7.739e-01          -0.623           0.364          -0.692       4.612e-03          0.2692
 962       7.099e+00       1.360e+01       8.047e-01          -0.793           0.386           0.472       7.302e-03         -2.1416
 963       7.145e+00       1.360e+01       8.452e-01          -0.486           0.208           0.849       1.154e-02         -2.1262
 964       7.234e+00       1.359e+01       8.818e-01          -0.285           0.102           0.953       1.633e-02         -1.5127
 965       7.362e+00       1.359e+01       9.099e-01          -0.156           0.038           0.987       2.069e-02         -1.1202
 966       7.520e+00       1.359e+01       9.262e-01          -0.056          -0.009           0.998       2.413e-02         -0.8752
 967       7.700e+00       1.359e+01       9.287e-01           0.024          -0.044           0.999       2.640e-02         -0.7059
 968       7.891e+00       1.359e+01       9.181e-01           0.085          -0.068           0.994       2.728e-02         -0.6090
 969       8.082e+00       1.359e+01       8.976e-01           0.130          -0.085           0.988       2.663e-02         -0.5977
 970       8.262e+00       1.359e+01       8.704e-01           0.171          -0.098           0.980       2.446e-02         -0.6529
 971       8.421e+00       1.360e+01       8.411e-01           0.196          -0.106           0.975       2.079e-02         -0.7473
 972       8.548e+00       1.360e+01       8.150e-01           0.205          -0.108           0.973       1.582e-02         -0.8221
 973       8.638e+00       1.360e+01       7.962e-01           0.207          -0.109           0.972       9.882e-03         -0.8171
 974       8.684e+00       1.360e+01       7.865e-01           0.202          -0.108           0.973       3.356e-03         -0.7938
Strip 38
 975       8.708e+00       1.369e+01       7.912e-01          -0.141           0.093          -0.986       1.091e-03         -1.5067
 976       8.662e+00       1.369e+01       7.963e-01          -0.104           0.083          -0.991       3.194e-03         -1.5600
 977       8.574e+00       1.369e+01       8.028e-01          -0.054           0.070          -0.996       5.094e-03         -1.4789
 978       8.449e+00       1.369e+01       8.057e-01           0.000           0.055          -0.999       6.702e-03         -1.1932
 979       8.293e+00       1.369e+01       8.011e-01           0.055           0.038          -0.998       7.942e-03         -0.8353
 980       8.115e+00       1.369e+01       7.874e-01           0.098           0.023          -0.995       8.742e-03         -0.5331
 981       7.927e+00       1.369e+01       7.671e-01           0.117           0.016          -0.993       9.028e-03         -0.3398
 982       7.739e+00       1.370e+01       7.467e-01           0.098           0.023          -0.995       8.748e-03         -0.2309
 983       7.562e+00       1.370e+01       7.339e-01           0.043           0.048          -0.998       7.943e-03         -0.1556
 984       7.406e+00       1.370e+01       7.324e-01          -0.030           0.082          -0.996       6.714e-03         -0.0726
 985       7.281e+00       1.370e+01       7.416e-01          -0.129           0.128          -0.983       5.147e-03          0.0631
 986       7.193e+00       1.369e+01       7.590e-01          -0.290           0.207          -0.934       3.363e-03          0.3141
 987       7.147e+00       1.369e+01       7.795e-01          -0.623           0.365          -0.692       1.517e-03          0.3331
 988       7.147e+00       1.369e+01       8.098e-01          -0.793           0.386           0.472       2.402e-03         -1.5490
 989       7.193e+00       1.369e+01       8.497e-01          -0.486           0.208           0.849       3.797e-03         -1.6879
 990       7.281e+00       1.369e+01       8.856e-01          -0.285           0.102           0.953       5.373e-03         -1.2093
 991       7.406e+00       1.369e+01       9.133e-01          -0.156           0.038           0.987       6.806e-03         -0.9114
 992       7.562e+00       1.368e+01       9.293e-01          -0.056          -0.009           0.998       7.936e-03         -0.7398
 993       7.739e+00       1.368e+01       9.318e-01           0.024          -0.044           0.999       8.681e-03         -0.6334
 994       7.927e+00       1.369e+01       9.215e-01           0.085          -0.068           0.994       8.972e-03         -0.6049
 995       8.115e+00       1.369e+01       9.012e-01           0.130          -0.085           0.988       8.760e-03         -0.6902
 996       8.293e+00       1.369e+01       8.744e-01           0.171          -0.098           0.980       8.045e-03         -0.9111
 997       8.449e+00       1.369e+01       8.456e-01           0.196          -0.106           0.975       6.839e-03         -1.2577
 998       8.574e+00       1.369e+01       8.200e-01           0.205          -0.108           0.973       5.203e-03         -1.5866
 999       8.662e+00       1.369e+01       8.014e-01           0.207          -0.109           0.972       3.250e-03         -1.7320
1000       8.708e+00       1.369e+01       7.919e-01           0.202          -0.108           0.973       1.104e-03         -1.7691










